pglib_opf_case6515_rte/pglib_opf_case6515_rte_16regions.m
% -------------------------------------------------------------------------
% Partitioned MATPOWER Case File
% Copyright (c) 2025 Milad Hasanzadeh
% Generated on: 2025-06-25
% This file contains partitioned data for 16 regions


% -------------------- mpc_regionR1 --------------------

mpc_regionR1.version = '2';
mpc_regionR1.baseMVA = 100.0000;
mpc_regionR1.bus = [
%	bus_i       type        Pd          Qd          Gs          Bs          area        Vm          Va          baseKV      zone        Vmax        Vmin        
	 1	 1	 0	 0	 0	 0	 1	 1.04666	 0	 225	 1	 1.08889	 1.00444;
	 2	 1	 0	 0	 0	 0	 1	 1	 0	 63	 1	 1.04762	 0.95238;
	 3	 1	 0	 0	 0	 0	 1	 1.04666	 0	 225	 1	 1.08889	 1.00444;
	 4	 1	 79.8	 13.5	 0	 0	 1	 1.02778	 0	 90	 1	 1.07778	 0.97778;
	 5	 1	 0.1	 0.7	 0	 0	 1	 1.04666	 0	 225	 1	 1.08889	 1.00444;
	 6	 1	 117.3	 33.8	 0	 0	 1	 1.04666	 0	 225	 1	 1.08889	 1.00444;
	 7	 1	 79.7	 11.6	 0	 0	 1	 1	 0	 63	 1	 1.04762	 0.95238;
	 8	 1	 62.1	 6.3	 0	 0	 1	 1.02778	 0	 90	 1	 1.07778	 0.97778;
	 9	 1	 4.8	 2.3	 0	 0	 1	 1.02778	 0	 90	 1	 1.07778	 0.97778;
	 10	 1	 29.3	-2.9	 0	 0	 1	 1.02222	 0	 90	 1	 1.06667	 0.97778;
	 11	 1	 1.1	-0.3	 0	 0	 1	 1.04666	 0	 225	 1	 1.08889	 1.00444;
	 12	 1	 14.1	 9.7	 0	 0	 1	 1.04666	 0	 225	 1	 1.08889	 1.00444;
	 13	 1	 65.9	 16.5	 0	 0	 1	 1.04666	 0	 225	 1	 1.08889	 1.00444;
	 14	 1	 54.3	 14.4	 0	 0	 1	 1.04666	 0	 225	 1	 1.08889	 1.00444;
	 15	 1	 55.5	 11.7	 0	 0	 1	 1.02778	 0	 90	 1	 1.07778	 0.97778;
	 16	 1	 45	 1.5	 0	 0	 1	 1.04666	 0	 225	 1	 1.08889	 1.00444;
	 17	 1	 111.4	 14.6	 0	 0	 1	 1.04666	 0	 225	 1	 1.08889	 1.00444;
	 18	 1	 0	 0	 0	 0	 1	 1.01852	 0	 63	 1	 1.08466	 0.95238;
	 19	 1	 0	 0	 0	 0	 1	 1.01855	 0	 63	 1	 1.08471	 0.95238;
	 20	 1	 80.2	 12	 0	 0	 1	 1.04666	 0	 225	 1	 1.08889	 1.00444;
	 21	 1	 0	 0	 0	 0	 1	 1.07369	 0	 380	 1	 1.10526	 1.04211;
	 22	 1	 60.1	 13.7	 0	 0	 1	 1.04666	 0	 225	 1	 1.08889	 1.00444;
	 23	 1	 0	 0	 0	 0	 1	 1.04666	 0	 225	 1	 1.08889	 1.00444;
	 24	 1	 0	 0	 0	 0	 1	 1.07369	 0	 380	 1	 1.10526	 1.04211;
	 25	 1	 86.8	 25.7	 0	 0	 1	 1.04666	 0	 225	 1	 1.08889	 1.00444;
	 26	 1	 31.5	 19.4	 0	 0	 1	 1.04666	 0	 225	 1	 1.08889	 1.00444;
	 27	 1	 34.6	 12.6	 0	 0	 1	 1.04666	 0	 225	 1	 1.08889	 1.00444;
	 28	 1	 0	 0	 0	 0	 1	 1	 0	 63	 1	 1.04762	 0.95238;
	 29	 1	 3.1	 5.8	 0	 0	 1	 1	 0	 63	 1	 1.04762	 0.95238;
	 30	 1	 54.5	 11.8	 0	 0	 1	 1.04666	 0	 225	 1	 1.08889	 1.00444;
	 31	 1	 0	 0	 0	 80	 1	 1.04666	 0	 225	 1	 1.08889	 1.00444;
	 32	 1	 0	 0	 0	 0	 1	 1.04666	 0	 225	 1	 1.08889	 1.00444;
	 33	 1	 41.6	 10.7	 0	 0	 1	 1.04666	 0	 225	 1	 1.08889	 1.00444;
	 34	 1	 0	 0	 0	 0	 1	 1.07237	 0	 380	 1	 1.10263	 1.04211;
	 35	 1	 0	 0	 0	 0	 1	 1.01854	 0	 63	 1	 1.0847	 0.95238;
	 36	 1	 56.9	 12.6	 0	 0	 1	 0.99754	 0	 63	 1	 1.04762	 0.94747;
	 37	 1	 21.1	 5.7	 0	 0	 1	 1	 0	 63	 1	 1.04762	 0.95238;
	 38	 1	 19.1	 6.7	 0	 0	 1	 1	 0	 63	 1	 1.04762	 0.95238;
	 39	 1	 24.1	 8.6	 0	 0	 1	 1	 0	 63	 1	 1.04762	 0.95238;
	 40	 1	 52.5	 14.2	 0	 0	 1	 1.04666	 0	 225	 1	 1.08889	 1.00444;
	 41	 1	 0	 0	 0	 0	 1	 1.02222	 0	 90	 1	 1.06667	 0.97778;
	 42	 1	 0	 0	 0	 0	 1	 1.07237	 0	 380	 1	 1.10263	 1.04211;
	 43	 1	 49.6	 9.6	 0	 0	 1	 1.04666	 0	 225	 1	 1.08889	 1.00444;
	 44	 1	 0.1	 4.6	 0	 0	 1	 1	 0	 63	 1	 1.04762	 0.95238;
	 45	 1	 71	 0	 0	 0	 1	 1.04666	 0	 225	 1	 1.08889	 1.00444;
	 46	 1	 97	-5	 0	 0	 1	 1.04666	 0	 225	 1	 1.08889	 1.00444;
	 47	 1	 0	 0	 0	 0	 1	 1	 0	 63	 1	 1.04762	 0.95238;
	 48	 1	 0	 0	 0	 0	 1	 1.04666	 0	 225	 1	 1.08889	 1.00444;
	 49	 1	 0	 0	 0	 0	 1	 1	 0	 63	 1	 1.04762	 0.95238;
	 50	 2	 0	 0	 0	 0	 1	 1	 0	 63	 1	 1.04762	 0.95238;
	 51	 1	 50.6	 15.1	 0	 0	 1	 1	 0	 63	 1	 1.04762	 0.95238;
	 52	 1	 50.3	 13	 0	 0	 1	 1.04666	 0	 225	 1	 1.08889	 1.00444;
	 53	 1	 38.5	 11.2	 0	 0	 1	 1.04666	 0	 225	 1	 1.08889	 1.00444;
	 54	 1	 38.6	-0.1	 0	 0	 1	 1.02778	 0	 90	 1	 1.07778	 0.97778;
	 55	 1	 60.4	 12.4	 0	 0	 1	 1.04666	 0	 225	 1	 1.08889	 1.00444;
	 56	 1	 81.2	 12.3	 0	 0	 1	 1.04666	 0	 225	 1	 1.08889	 1.00444;
	 57	 1	 7.4	 1.9	 0	 0	 1	 1.02778	 0	 90	 1	 1.07778	 0.97778;
	 58	 1	 0	 0	 0	 0	 1	 1.04666	 0	 225	 1	 1.08889	 1.00444;
	 59	 1	 63.8	 16.1	 0	 0	 1	 1.04666	 0	 225	 1	 1.08889	 1.00444;
	 60	 1	 43.4	 0.4	 0	 0	 1	 1.04666	 0	 225	 1	 1.08889	 1.00444;
	 61	 1	 5	 1.5	 0	 0	 1	 1.02778	 0	 90	 1	 1.07778	 0.97778;
	 62	 1	 5.8	 13.2	 0	 0	 1	 1.02778	 0	 90	 1	 1.07778	 0.97778;
	 63	 1	-0	-0.5	 0	 0	 1	 1.02778	 0	 90	 1	 1.07778	 0.97778;
	 64	 1	 95.9	 7.7	 0	 0	 1	 1.04666	 0	 225	 1	 1.08889	 1.00444;
	 65	 1	 131.1	 20.4	 0	 0	 1	 1.04666	 0	 225	 1	 1.08889	 1.00444;
	 66	 1	 42.5	 7.6	 0	 0	 1	 1.04666	 0	 225	 1	 1.08889	 1.00444;
	 67	 1	 45.3	 5.1	 0	 0	 1	 1.02778	 0	 90	 1	 1.07778	 0.97778;
	 68	 1	 137.7	 15.7	 0	 0	 1	 1.04666	 0	 225	 1	 1.08889	 1.00444;
	 69	 1	 29.3	 6.3	 0	 0	 1	 1.02778	 0	 90	 1	 1.07778	 0.97778;
	 70	 1	 49.9	 2.9	 0	 0	 1	 1.04666	 0	 225	 1	 1.08889	 1.00444;
	 71	 1	 33.4	-2.9	 0	 0	 1	 1.04666	 0	 225	 1	 1.08889	 1.00444;
	 72	 1	 13.6	 3.4	 0	 0	 1	 1	 0	 63	 1	 1.04762	 0.95238;
	 73	 1	 44.1	 6.3	 0	 0	 1	 1.04666	 0	 225	 1	 1.08889	 1.00444;
	 74	 1	 5	-2	 0	 0	 1	 1.02778	 0	 90	 1	 1.07778	 0.97778;
	 75	 1	 3	 1.1	 0	 0	 1	 1.02778	 0	 90	 1	 1.07778	 0.97778;
	 76	 1	 15.4	 3.8	 0	 0	 1	 1.04666	 0	 225	 1	 1.08889	 1.00444;
	 77	 1	 5.6	 3.3	 0	 0	 1	 1	 0	 63	 1	 1.04762	 0.95238;
	 78	 1	 49.5	-9.4	 0	 0	 1	 1.02222	 0	 90	 1	 1.06667	 0.97778;
	 79	 1	 64.6	 3.9	 0	 0	 1	 1.04666	 0	 225	 1	 1.08889	 1.00444;
	 80	 1	 0	 0	 0	 0	 1	 1	 0	 63	 1	 1.04762	 0.95238;
	 81	 1	 0	 0	 0	 0	 1	 1	 0	 63	 1	 1.04762	 0.95238;
	 82	 1	 0.5	 2.9	 0	 0	 1	 1.04666	 0	 225	 1	 1.08889	 1.00444;
	 83	 1	 4.6	 2.5	 0	 0	 1	 1	 0	 63	 1	 1.04762	 0.95238;
	 84	 1	 49	 4.5	 0	 0	 1	 1.04666	 0	 225	 1	 1.08889	 1.00444;
	 85	 1	 44.2	 5.8	 0	 0	 1	 1.04666	 0	 225	 1	 1.08889	 1.00444;
	 86	 1	 35.4	 8.1	 0	 0	 1	 1.04666	 0	 225	 1	 1.08889	 1.00444;
	 87	 1	 30.5	 12.3	 0	 0	 1	 1.04666	 0	 225	 1	 1.08889	 1.00444;
	 88	 1	 16.2	 3.1	 0	 0	 1	 1.04666	 0	 225	 1	 1.08889	 1.00444;
	 89	 1	 0.3	 1	 0	 0	 1	 1	 0	 63	 1	 1.04762	 0.95238;
	 90	 1	 0	 0	 0	 0	 1	 1.04666	 0	 225	 1	 1.08889	 1.00444;
	 91	 1	 0	 0	 0	 0	 1	 1.04666	 0	 225	 1	 1.08889	 1.00444;
	 92	 1	 23.2	 6.9	 0	 0	 1	 1.02778	 0	 90	 1	 1.07778	 0.97778;
	 93	 1	 0	 0	 0	 0	 1	 1	 0	 63	 1	 1.04762	 0.95238;
	 94	 1	 36.2	 2	 0	 0	 1	 1.04666	 0	 225	 1	 1.08889	 1.00444;
	 95	 1	 11.3	-0.5	 0	 0	 1	 1.02222	 0	 90	 1	 1.06667	 0.97778;
	 96	 1	 109.8	 32.1	 0	 0	 1	 1.04666	 0	 225	 1	 1.08889	 1.00444;
	 97	 1	 14	 3.3	 0	 80	 1	 1.04666	 0	 225	 1	 1.08889	 1.00444;
	 98	 1	 0	 0	 0	 0	 1	 1.02778	 0	 90	 1	 1.07778	 0.97778;
	 99	 1	 1.9	 2	 0	 0	 1	 1.02778	 0	 90	 1	 1.07778	 0.97778;
	 100	 1	 12	 3.8	 0	 0	 1	 1	 0	 63	 1	 1.04762	 0.95238;
	 101	 1	 0.7	-37.6	 0	 0	 1	 1	 0	 63	 1	 1.04762	 0.95238;
	 102	 1	 41.7	 7.9	 0	 0	 1	 1	 0	 63	 1	 1.04762	 0.95238;
	 103	 1	 0	 0	 0	 0	 1	 1	 0	 63	 1	 1.04762	 0.95238;
	 104	 1	 0	 0	 0	 0	 1	 1.02778	 0	 90	 1	 1.07778	 0.97778;
	 105	 1	 0	 0	 0	 0	 1	 1.04666	 0	 225	 1	 1.08889	 1.00444;
	 106	 1	 0	 0	 0	 0	 1	 1.04666	 0	 225	 1	 1.08889	 1.00444;
	 107	 1	 0	 0	 0	 0	 1	 1.07369	 0	 380	 1	 1.10526	 1.04211;
	 108	 1	 1.9	-6.2	 0	 0	 1	 1.04666	 0	 225	 1	 1.08889	 1.00444;
	 109	 1	 0.1	 6.9	 0	 0	 1	 1	 0	 63	 1	 1.04762	 0.95238;
	 110	 1	 0	 0	 0	 0	 1	 1.04666	 0	 225	 1	 1.08889	 1.00444;
	 111	 1	 0	 0	 0	 0	 1	 1.04666	 0	 225	 1	 1.08889	 1.00444;
	 112	 1	 0	 0	 0	 0	 1	 1.04666	 0	 225	 1	 1.08889	 1.00444;
	 113	 1	 0	 0	 0	 0	 1	 1.04666	 0	 225	 1	 1.08889	 1.00444;
	 114	 1	 0	 0	 0	 0	 1	 1	 0	 63	 1	 1.04762	 0.95238;
	 115	 1	 0	 0	 0	 0	 1	 1.04666	 0	 225	 1	 1.08889	 1.00444;
	 116	 1	 0	 0	 0	 0	 1	 1.04666	 0	 225	 1	 1.08889	 1.00444;
	 117	 1	 0	 0	 0	 0	 1	 1.04666	 0	 225	 1	 1.08889	 1.00444;
	 118	 1	 0	 0	 0	 0	 1	 1.04666	 0	 225	 1	 1.08889	 1.00444;
	 119	 1	 0	 0	 0	 0	 1	 1.02778	 0	 90	 1	 1.07778	 0.97778;
	 120	 1	 0	 0	 0	 0	 1	 1.02778	 0	 90	 1	 1.07778	 0.97778;
	 121	 1	 0	 0	 0	 0	 1	 1.04666	 0	 225	 1	 1.08889	 1.00444;
	 122	 1	 0	 0	 0	 0	 1	 1.04666	 0	 225	 1	 1.08889	 1.00444;
	 123	 1	 0	 0	 0	 0	 1	 1.02778	 0	 90	 1	 1.07778	 0.97778;
	 124	 1	 0	 0	 0	 0	 1	 1.02778	 0	 90	 1	 1.07778	 0.97778;
	 125	 1	 0	 0	 0	 0	 1	 0.975	 0	 380	 1	 1.15	 0.8;
	 126	 1	 0	 0	 0	 0	 1	 0.975	 0	 380	 1	 1.15	 0.8;
	 127	 1	 0	 0	 0	 0	 1	 0.975	 0	 380	 1	 1.15	 0.8;
	 128	 1	 0	 0	 0	 0	 1	 0.975	 0	 225	 1	 1.15	 0.8;
	 129	 1	 0	 0	 0	 0	 1	 0.975	 0	 380	 1	 1.15	 0.8;
	 130	 1	 0	 0	 0	 0	 1	 0.975	 0	 225	 1	 1.15	 0.8;
	 131	 1	 0	 0	 0	 0	 1	 0.975	 0	 380	 1	 1.15	 0.8;
	 132	 1	 0	 0	 0	 0	 1	 0.975	 0	 380	 1	 1.15	 0.8;
];

mpc_regionR1.gen = [
%	bus         Pg          Qg          Qmax        Qmin        Vg          mBase       status      Pmax        Pmin        Pc1         Pc2         Qc1min      Qc1max      Qc2min      Qc2max      ramp_agc    ramp_10     ramp_30     ramp_q      apf         
	 50	 0	 2.36	 17	-20	 1.0000005	 100	 0	 56	 0;
	 78	 17.5	 0	 0	 0	 1.022224	 100	 1	 35	 0;
	 78	 18	 0	 0	 0	 1.022224	 100	 1	 36	 0;
	 95	 0	 0	 0	 0	 1.022224	 100	 0	 12	 0;
];

mpc_regionR1.branch = [
%	fbus        tbus        r           x           b           rateA       rateB       rateC       ratio       angle       status      angmin      angmax      
	 6	 1	 0.000158	 0.000672	 0.0719	 331	 331	 331	 0	 0	 1	-30	 30;
	 88	 1	 4.5e-05	 8.9e-05	 0.002	 268	 268	 268	 0	 0	 1	-30	 30;
	 28	 2	 0.006299	 0.027715	 0.0003	 1009	 1009	 1009	 0	 0	 1	-30	 30;
	 39	 2	 0.008818	 0.028471	 0.0003	 962	 962	 962	 0	 0	 1	-30	 30;
	 51	 2	 0.043588	 0.145629	 0.008	 189	 189	 189	 0	 0	 1	-30	 30;
	 114	 2	 0.015117	 0.051902	 0.0006	 530	 530	 530	 0	 0	 1	-30	 30;
	 29	 2	 0.006551	 0.025951	 0.0003	 1071	 1071	 1071	 0	 0	 1	-30	 30;
	 38	 2	 0.008314	 0.027211	 0.0003	 1007	 1007	 1007	 0	 0	 1	-30	 30;
	 51	 2	 0.043689	 0.145528	 0.0081	 189	 189	 189	 0	 0	 1	-30	 30;
	 37	 2	 0.008566	 0.027967	 0.0003	 980	 980	 980	 0	 0	 1	-30	 30;
	 20	 3	 0.000514	 0.003417	 0.0278	 452	 452	 452	 0	 0	 1	-30	 30;
	 23	 3	 0.001084	 0.007198	 0.0132	 448	 448	 448	 0	 0	 1	-30	 30;
	 113	 3	 0.000523	 0.002436	 0.0167	 348	 348	 348	 0	 0	 1	-30	 30;
	 20	 3	 0.000514	 0.003457	 0.0203	 356	 356	 356	 0	 0	 1	-30	 30;
	 23	 3	 0.001086	 0.007249	 0.0132	 540	 540	 540	 0	 0	 1	-30	 30;
	 112	 3	 0.000553	 0.002469	 0.0157	 405	 405	 405	 0	 0	 1	-30	 30;
	 23	 3	 0.001086	 0.007269	 0.0132	 540	 540	 540	 0	 0	 1	-30	 30;
	 57	 4	 0.001481	 0.005679	 0.0267	 5167	 5167	 5167	 0	 0	 1	-30	 30;
	 119	 4	 0.008642	 0.018272	 0.0045	 1501	 1501	 1501	 0	 0	 1	-30	 30;
	 94	 5	 0.000158	 0.000948	 0.002	 348	 348	 348	 0	 0	 1	-30	 30;
	 22	 6	 0.000336	 0.001363	 0.1499	 331	 331	 331	 0	 0	 1	-30	 30;
	 31	 6	 0.000178	 0.001422	 0.1448	 339	 339	 339	 0	 0	 1	-30	 30;
	 47	 7	 0.002016	 0.005039	 0.0093	 5279	 5279	 5279	 0	 0	 1	-30	 30;
	 81	 7	 0.022681	 0.041517	 0.0216	 606	 606	 606	 0	 0	 1	-30	 30;
	 47	 7	 0.001512	 0.005291	 0.0095	 5207	 5207	 5207	 0	 0	 1	-30	 30;
	 80	 7	 0.022761	 0.041664	 0.0218	 604	 604	 604	 0	 0	 1	-30	 30;
	 47	 7	 0.002016	 0.005039	 0.0091	 5279	 5279	 5279	 0	 0	 1	-30	 30;
	 98	 8	 0.012568	 0.033383	 0.0066	 851	 851	 851	 0	 0	 1	-30	 30;
	 99	 8	 0.012568	 0.033383	 0.0066	 851	 851	 851	 0	 0	 1	-30	 30;
	 54	 9	 0.000525	 0.000961	 0.0032	 27692	 27692	 27692	 0	 0	 1	-30	 30;
	 41	 10	 0.002963	 0.012346	 0.0025	 2340	 2340	 2340	 0	 0	 1	-30	 30;
	 111	 11	 2e-05	 0.000198	 0.001	 471	 471	 471	 0	 0	 1	-30	 30;
	 110	 12	 2e-05	 0.000198	 0.001	 540	 540	 540	 0	 0	 1	-30	 30;
	 48	 14	 0.000237	 0.001422	 0.1686	 21471	 21471	 21471	 0	 0	 1	-30	 30;
	 68	 13	 0.000277	 0.001086	 0.1417	 27618	 27618	 27618	 0	 0	 1	-30	 30;
	 96	 13	 0.000296	 0.000672	 0.0678	 42153	 42153	 42153	 0	 0	 1	-30	 30;
	 104	 15	 0.007531	 0.019136	 0.0042	 1475	 1475	 1475	 0	 0	 1	-30	 30;
	 124	 15	 0.011975	 0.031975	 0.0065	 889	 889	 889	 0	 0	 1	-30	 30;
	 122	 17	 0.000198	 0.000672	 0.1509	 257	 257	 257	 0	 0	 1	-30	 30;
	 121	 16	 0.000198	 0.000691	 0.1529	 257	 257	 257	 0	 0	 1	-30	 30;
	 35	 19	 0.000756	 0.003527	 0.0053	 8516	 8516	 8516	 0	 0	 1	-30	 30;
	 35	 18	 0.001008	 0.004283	 0.0066	 6981	 6981	 6981	 0	 0	 1	-30	 30;
	 94	 20	 0.00322	 0.021689	 0.0688	 452	 452	 452	 0	 0	 1	-30	 30;
	 24	 21	 0.00126	 0.014141	 0.2845	 1191	 1191	 1191	 0	 0	 1	-30	 30;
	 24	 21	 0.00126	 0.01412	 0.2859	 1191	 1191	 1191	 0	 0	 1	-30	 30;
	 30	 22	 0.000968	 0.002943	 0.3453	 9991	 9991	 9991	 0	 0	 1	-30	 30;
	 31	 22	 0.000217	 0.000849	 0.0931	 331	 331	 331	 0	 0	 1	-30	 30;
	 73	 22	 0.001205	 0.002746	 0.4668	 10322	 10322	 10322	 0	 0	 1	-30	 30;
	 86	 22	 0.000454	 0.002331	 0.0516	 272	 272	 272	 0	 0	 1	-30	 30;
	 105	 22	 0.001284	 0.0096	 0.038	 335	 335	 335	 0	 0	 1	-30	 30;
	 105	 22	 0.001284	 0.00956	 0.038	 335	 335	 335	 0	 0	 1	-30	 30;
	 105	 22	 0.000909	 0.00879	 0.039	 833	 833	 833	 0	 0	 1	-30	 30;
	 116	 22	 0.000533	 0.005096	 0.0248	 935	 935	 935	 0	 0	 1	-30	 30;
	 58	 23	 0.00079	 0.005345	 0.0354	 440	 440	 440	 0	 0	 1	-30	 30;
	 60	 23	 0.00255	 0.017084	 0.0309	 471	 471	 471	 0	 0	 1	-30	 30;
	 58	 23	 0.000745	 0.005047	 0.0349	 440	 440	 440	 0	 0	 1	-30	 30;
	 42	 24	 0.000741	 0.009716	 0.335	 2487	 2487	 2487	 0	 0	 1	-30	 30;
	 107	 24	 0.000422	 0.004709	 0.0953	 1774	 1774	 1774	 0	 0	 1	-30	 30;
	 42	 24	 0.000741	 0.009709	 0.335	 2487	 2487	 2487	 0	 0	 1	-30	 30;
	 107	 24	 0.000422	 0.004758	 0.0953	 1774	 1774	 1774	 0	 0	 1	-30	 30;
	 107	 24	 0.000644	 0.005035	 0.1112	 1397	 1397	 1397	 0	 0	 1	-30	 30;
	 55	 25	 0.000158	 0.000474	 0.0506	 278	 278	 278	 0	 0	 1	-30	 30;
	 68	 25	 0.000198	 0.00077	 0.0972	 311	 311	 311	 0	 0	 1	-30	 30;
	 113	 26	 1.6e-05	 9.9e-05	 0.001	 471	 471	 471	 0	 0	 1	-30	 30;
	 112	 27	 1.6e-05	 9.9e-05	 0.001	 540	 540	 540	 0	 0	 1	-30	 30;
	 101	 28	 0.008314	 0.034266	 0.0004	 813	 813	 813	 0	 0	 1	-30	 30;
	 43	 31	 0.000198	 0.0016	 0.162	 434	 434	 434	 0	 0	 1	-30	 30;
	 87	 31	 0.000454	 0.001106	 0.1002	 268	 268	 268	 0	 0	 1	-30	 30;
	 79	 32	 0.001244	 0.008415	 0.0309	 388	 388	 388	 0	 0	 1	-30	 30;
	 94	 32	 0.002114	 0.014242	 0.0486	 440	 440	 440	 0	 0	 1	-30	 30;
	 43	 33	 0.000356	 0.000731	 0.0415	 38069	 38069	 38069	 0	 0	 1	-30	 30;
	 42	 34	 0.000589	 0.007708	 0.2628	 2487	 2487	 2487	 0	 0	 1	-30	 30;
	 42	 34	 0.000589	 0.007708	 0.2628	 2389	 2389	 2389	 0	 0	 1	-30	 30;
	 107	 34	 0.00153	 0.015526	 0.4014	 1828	 1828	 1828	 0	 0	 1	-30	 30;
	 89	 36	 0.028471	 0.116654	 0.0016	 239	 239	 239	 0	 0	 1	-30	 30;
	 53	 40	 0.000217	 0.000474	 0.0445	 59375	 59375	 59375	 0	 0	 1	-30	 30;
	 78	 41	 0.012593	 0.078025	 0.004	 376	 376	 376	 0	 0	 1	-30	 30;
	 78	 41	 0.012099	 0.078272	 0.004	 376	 376	 376	 0	 0	 1	-30	 30;
	 93	 44	 0.014696	 0.0269	 0.0656	 935	 935	 935	 0	 0	 1	-30	 30;
	 113	 46	 0.0013	 0.005888	 0.0101	 272	 272	 272	 0	 0	 1	-30	 30;
	 112	 45	 0.001306	 0.005912	 0.0101	 314	 314	 314	 0	 0	 1	-30	 30;
	 49	 47	 0.000252	 0.00252	 0.0011	 11313	 11313	 11313	 0	 0	 1	-30	 30;
	 50	 47	 0.000756	 0.002016	 0.0023	 13307	 13307	 13307	 0	 0	 1	-30	 30;
	 72	 47	 0.007559	 0.015369	 0.0126	 1673	 1673	 1673	 0	 0	 1	-30	 30;
	 77	 47	 0.009964	 0.01824	 0.0118	 1379	 1379	 1379	 0	 0	 1	-30	 30;
	 83	 47	 0.002217	 0.004059	 0.0026	 6195	 6195	 6195	 0	 0	 1	-30	 30;
	 102	 47	 0.008296	 0.015186	 0.0096	 1656	 1656	 1656	 0	 0	 1	-30	 30;
	 49	 47	 0.000252	 0.00252	 0.0011	 11313	 11313	 11313	 0	 0	 1	-30	 30;
	 102	 47	 0.006551	 0.01285	 0.0112	 1987	 1987	 1987	 0	 0	 1	-30	 30;
	 102	 47	 0.004283	 0.01033	 0.0111	 2563	 2563	 2563	 0	 0	 1	-30	 30;
	 53	 48	 0.000158	 0.000593	 0.0688	 50437	 50437	 50437	 0	 0	 1	-30	 30;
	 66	 48	 0.000336	 0.001304	 0.162	 385	 385	 385	 0	 0	 1	-30	 30;
	 68	 48	 4e-05	 0.000237	 0.0334	 434	 434	 434	 0	 0	 1	-30	 30;
	 90	 48	 0.000296	 0.002667	 0.1863	 426	 426	 426	 0	 0	 1	-30	 30;
	 52	 48	 0.000362	 0.000664	 0.0466	 40928	 40928	 40928	 0	 0	 1	-30	 30;
	 91	 48	 0.000435	 0.001659	 0.3351	 350	 350	 350	 0	 0	 1	-30	 30;
	 57	 54	 0.020161	 0.05458	 0.0192	 522	 522	 522	 0	 0	 1	-30	 30;
	 67	 54	 0.012963	 0.036667	 0.0084	 780	 780	 780	 0	 0	 1	-30	 30;
	 98	 54	 0.015556	 0.039877	 0.007	 709	 709	 709	 0	 0	 1	-30	 30;
	 57	 54	 0.020123	 0.054444	 0.0187	 523	 523	 523	 0	 0	 1	-30	 30;
	 99	 54	 0.015383	 0.039642	 0.007	 714	 714	 714	 0	 0	 1	-30	 30;
	 57	 54	 0.020247	 0.054568	 0.019	 522	 522	 522	 0	 0	 1	-30	 30;
	 58	 56	 0.001327	 0.008873	 0.0466	 440	 440	 440	 0	 0	 1	-30	 30;
	 106	 56	 0.002291	 0.01521	 0.0284	 471	 471	 471	 0	 0	 1	-30	 30;
	 124	 57	 0.009753	 0.024074	 0.0133	 1168	 1168	 1168	 0	 0	 1	-30	 30;
	 123	 57	 0.010247	 0.025309	 0.0133	 1111	 1111	 1111	 0	 0	 1	-30	 30;
	 115	 58	 0.000593	 0.003951	 0.0339	 440	 440	 440	 0	 0	 1	-30	 30;
	 66	 59	 0.000198	 0.001699	 0.1731	 300	 300	 300	 0	 0	 1	-30	 30;
	 79	 60	 0.001041	 0.006967	 0.0152	 500	 500	 500	 0	 0	 1	-30	 30;
	 104	 62	 0.009753	 0.018272	 0.0008	 1465	 1465	 1465	 0	 0	 1	-30	 30;
	 104	 61	 0.003185	 0.008914	 0.0319	 3204	 3204	 3204	 0	 0	 1	-30	 30;
	 104	 63	 0.004074	 0.028025	 0.0058	 1071	 1071	 1071	 0	 0	 1	-30	 30;
	 106	 64	 0.000514	 0.004247	 0.0121	 540	 540	 540	 0	 0	 1	-30	 30;
	 116	 65	 5.9e-05	 0.000474	 0.002	 471	 471	 471	 0	 0	 1	-30	 30;
	 105	 68	 0.001146	 0.010923	 0.1706	 401	 401	 401	 0	 0	 1	-30	 30;
	 105	 68	 0.001185	 0.010844	 0.1671	 401	 401	 401	 0	 0	 1	-30	 30;
	 104	 69	 0.005432	 0.022222	 0.0073	 1326	 1326	 1326	 0	 0	 1	-30	 30;
	 117	 71	 2e-05	 0.000198	 0.0172	 290	 290	 290	 0	 0	 1	-30	 30;
	 118	 70	 2e-05	 0.000198	 0.0142	 290	 290	 290	 0	 0	 1	-30	 30;
	 104	 74	 0.001481	 0.00358	 0.0002	 7828	 7828	 7828	 0	 0	 1	-30	 30;
	 119	 75	 0.002041	 0.003736	 0.0002	 7124	 7124	 7124	 0	 0	 1	-30	 30;
	 86	 76	 0.000126	 0.000261	 0.0152	 106799	 106799	 106799	 0	 0	 1	-30	 30;
	 95	 78	 0.038272	 0.080494	 0.0037	 334	 334	 334	 0	 0	 1	-30	 30;
	 103	 81	 0.003527	 0.007055	 0.0069	 3633	 3633	 3633	 0	 0	 1	-30	 30;
	 103	 80	 0.003527	 0.007055	 0.0069	 3633	 3633	 3633	 0	 0	 1	-30	 30;
	 115	 82	 0.00073	 0.001335	 0.1104	 20343	 20343	 20343	 0	 0	 1	-30	 30;
	 122	 85	 9.9e-05	 0.000573	 0.0511	 53230	 53230	 53230	 0	 0	 1	-30	 30;
	 121	 84	 0.000138	 0.000435	 0.0445	 67824	 67824	 67824	 0	 0	 1	-30	 30;
	 101	 89	 0.018392	 0.076846	 0.0073	 363	 363	 363	 0	 0	 1	-30	 30;
	 105	 90	 0.000948	 0.009185	 0.0324	 426	 426	 426	 0	 0	 1	-30	 30;
	 105	 91	 0.000889	 0.008652	 0.0304	 350	 350	 350	 0	 0	 1	-30	 30;
	 123	 92	 0.000123	 0.001235	 0.0005	 24434	 24434	 24434	 0	 0	 1	-30	 30;
	 108	 97	 0.000395	 0.002291	 0.0182	 368	 368	 368	 0	 0	 1	-30	 30;
	 118	 97	 0.001659	 0.011062	 0.0203	 352	 352	 352	 0	 0	 1	-30	 30;
	 102	 100	 0.006758	 0.01237	 0.0087	 2033	 2033	 2033	 0	 0	 1	-30	 30;
	 119	 104	 0.011358	 0.034938	 0.0016	 826	 826	 826	 0	 0	 1	-30	 30;
	 120	 104	 0.004074	 0.017407	 0.0026	 1697	 1697	 1697	 0	 0	 1	-30	 30;
	 123	 104	 0.021111	 0.054568	 0.0024	 519	 519	 519	 0	 0	 1	-30	 30;
	 108	 106	 0.00083	 0.007052	 0.0724	 368	 368	 368	 0	 0	 1	-30	 30;
	 111	 105	 0.000731	 0.003121	 0.0051	 348	 348	 348	 0	 0	 1	-30	 30;
	 115	 106	 0.001025	 0.006888	 0.0121	 540	 540	 540	 0	 0	 1	-30	 30;
	 117	 106	 0.000553	 0.003595	 0.0071	 352	 352	 352	 0	 0	 1	-30	 30;
	 118	 106	 0.000533	 0.003575	 0.0061	 352	 352	 352	 0	 0	 1	-30	 30;
	 122	 106	 0.000849	 0.00796	 0.0284	 356	 356	 356	 0	 0	 1	-30	 30;
	 110	 105	 0.000731	 0.003121	 0.0051	 405	 405	 405	 0	 0	 1	-30	 30;
	 121	 105	 0.000849	 0.008237	 0.0284	 356	 356	 356	 0	 0	 1	-30	 30;
	 116	 105	 0.000375	 0.003733	 0.0121	 833	 833	 833	 0	 0	 1	-30	 30;
	 114	 109	 0.030234	 0.078105	 0.0092	 343	 343	 343	 0	 0	 1	-30	 30;
	 2	 3	 0.003279	 0.11358	 0	 271	 271	 271	 0.98619	 0	 1	-30	 30;
	 2	 3	 0.00324	 0.117531	 0	 262	 262	 262	 0.98912	 0	 1	-30	 30;
	 2	 3	 0.003753	 0.112395	 0	 273	 273	 273	 0.97561	 0	 1	-30	 30;
	 18	 20	 0.003101	 0.124049	 0	 249	 249	 249	 1.023541	 0	 1	-30	 30;
	 23	 24	 0.000339	 0.027285	 0	 1162	 1162	 1162	 1	 0	 1	-30	 30;
	 23	 24	 0.000339	 0.027355	 0	 1159	 1159	 1159	 1	 0	 1	-30	 30;
	 23	 127	 0.000132	-0.007479	 0	 1186	 1186	 1186	 1.002005	 0	 1	-30	 30;
	 24	 127	 0.000173	 0.034764	 0	 985	 985	 985	 0	 0	 1	-30	 30;
	 41	 42	 0.003026	 0.155471	 0	 203	 203	 203	 0.956942	 0	 1	-30	 30;
	 47	 48	 0.003635	 0.114963	 0	 267	 267	 267	 0.942507	 0	 1	-30	 30;
	 47	 128	 0.001343	-0.004543	 0	 446	 446	 446	 0.94697	 0	 1	-30	 30;
	 47	 130	 0.001679	 0.012642	 0	 446	 446	 446	 0.937207	 0	 1	-30	 30;
	 48	 128	 0.001817	 0.123654	 0	 278	 278	 278	 0	 0	 1	-30	 30;
	 48	 130	 0.001877	 0.098765	 0	 348	 348	 348	 0	 0	 1	-30	 30;
	 57	 58	 0.001778	 0.100148	 0	 308	 308	 308	 0.983284	 0	 1	-30	 30;
	 57	 58	 0.001778	 0.100148	 0	 308	 308	 308	 0.995025	 0	 1	-30	 30;
	 93	 94	 0.003595	 0.123062	 0	 250	 250	 250	 0.921656	 0	 1	-30	 30;
	 104	 106	 0.00316	 0.11516	 0	 268	 268	 268	 1.020408	 0	 1	-30	 30;
	 104	 106	 0.003595	 0.120889	 0	 255	 255	 255	 1.029866	 0	 1	-30	 30;
	 105	 125	 0.00027	-0.005332	 0	 1186	 1186	 1186	 1.002005	 0	 1	-30	 30;
	 105	 126	 0.000249	-0.005471	 0	 1186	 1186	 1186	 1.002005	 0	 1	-30	 30;
	 106	 129	 0.000125	-0.007687	 0	 1186	 1186	 1186	 1	 0	 1	-30	 30;
	 105	 131	 0.000173	-0.007895	 0	 1186	 1186	 1186	 1.002005	 0	 1	-30	 30;
	 105	 132	 0.000132	-0.010942	 0	 1186	 1186	 1186	 1.002005	 0	 1	-30	 30;
	 107	 125	 5.5e-05	 0.032756	 0	 1046	 1046	 1046	 0	 0	 1	-30	 30;
	 107	 126	 6.9e-05	 0.032895	 0	 1041	 1041	 1041	 0	 0	 1	-30	 30;
	 107	 129	 0.000201	 0.034834	 0	 983	 983	 983	 0	 0	 1	-30	 30;
	 107	 131	 0.000166	 0.034834	 0	 983	 983	 983	 0	 0	 1	-30	 30;
	 107	 132	 0.000208	 0.038643	 0	 886	 886	 886	 0	 0	 1	-30	 30;
];

mpc_regionR1.gencost = [
%	2           startup     shutdown    n           c(n-1)...c0 
	 2	 0	 0	 3	 0	 79.873659	 0;
	 2	 0	 0	 3	 0	 110.799273	 0;
	 2	 0	 0	 3	 0	 15.597611	 0;
	 2	 0	 0	 3	 0	 60.84239	 0;
];


% -------------------- mpc_regionR2 --------------------

mpc_regionR2.version = '2';
mpc_regionR2.baseMVA = 100.0000;
mpc_regionR2.bus = [
%	bus_i       type        Pd          Qd          Gs          Bs          area        Vm          Va          baseKV      zone        Vmax        Vmin        
	 1	 1	 63.2	 13.3	 0	 30.4	 1	 1.02778	 0	 90	 1	 1.07778	 0.97778;
	 2	 1	 43.6	-2.9	 0	 0	 1	 1.02778	 0	 90	 1	 1.07778	 0.97778;
	 3	 1	 38.1	 4.1	 0	 0	 1	 1.02778	 0	 90	 1	 1.07778	 0.97778;
	 4	 1	 3.2	 2.7	 0	 0	 1	 1.02778	 0	 90	 1	 1.07778	 0.97778;
	 5	 1	 50.9	 12.3	 0	 0	 1	 1.04666	 0	 225	 1	 1.08889	 1.00444;
	 6	 1	 154	 36.4	 0	 0	 1	 1.04666	 0	 225	 1	 1.08889	 1.00444;
	 7	 1	 0	 0	 0	 0	 1	 1.04666	 0	 225	 1	 1.08889	 1.00444;
	 8	 1	 0	 0	 0	 0	 1	 1.04666	 0	 225	 1	 1.08889	 1.00444;
	 9	 1	 79	 24.8	 0	 0	 1	 1.04666	 0	 225	 1	 1.08889	 1.00444;
	 10	 1	 26.2	 0.3	 0	 0	 1	 1.02778	 0	 90	 1	 1.07778	 0.97778;
	 11	 1	 12.2	-2.4	 0	 0	 1	 1.02778	 0	 90	 1	 1.07778	 0.97778;
	 12	 1	 0	 0	 0	 0	 1	 1.04666	 0	 225	 1	 1.08889	 1.00444;
	 13	 1	 23.9	 1.4	 0	 0	 1	 1.02778	 0	 90	 1	 1.07778	 0.97778;
	 14	 1	 28	 0.8	 0	 30	 1	 1.02778	 0	 90	 1	 1.07778	 0.97778;
	 15	 1	 0	 0	 0	 0	 1	 1.04666	 0	 225	 1	 1.08889	 1.00444;
	 16	 1	 5	 1.4	 0	 0	 1	 1.02778	 0	 90	 1	 1.07778	 0.97778;
	 17	 1	 16.6	-0.8	 0	 0	 1	 1.02778	 0	 90	 1	 1.07778	 0.97778;
	 18	 1	 43.1	 4.5	 0	 30.4	 1	 1.02778	 0	 90	 1	 1.07778	 0.97778;
	 19	 1	 0	 0	 0	 0	 1	 1.04666	 0	 225	 1	 1.08889	 1.00444;
	 20	 1	 44	 14.3	 0	 0	 1	 1.02778	 0	 90	 1	 1.07778	 0.97778;
	 21	 1	 21.5	-0.1	 0	 0	 1	 1.02778	 0	 90	 1	 1.07778	 0.97778;
	 22	 1	 23.4	-5.5	 0	 0	 1	 1.02778	 0	 90	 1	 1.07778	 0.97778;
	 23	 1	 0	 0	 0	 0	 1	 1.07369	 0	 380	 1	 1.10526	 1.04211;
	 24	 1	 0	 0	 0	 0	 1	 1.07369	 0	 380	 1	 1.10526	 1.04211;
	 25	 1	 5.8	 2	 0	 0	 1	 1.04666	 0	 225	 1	 1.08889	 1.00444;
	 26	 1	 0	 0	 0	 0	 1	 1.04666	 0	 225	 1	 1.08889	 1.00444;
	 27	 1	 24.9	 7.3	 0	 0	 1	 1.04666	 0	 225	 1	 1.08889	 1.00444;
	 28	 1	 52.7	 7.3	 0	 0	 1	 1.02778	 0	 90	 1	 1.07778	 0.97778;
	 29	 1	 67.6	 14.6	 0	 0	 1	 1.04666	 0	 225	 1	 1.08889	 1.00444;
	 30	 1	 32.9	 1.6	 0	 0	 1	 1	 0	 63	 1	 1.04762	 0.95238;
	 31	 1	 39.2	-3.5	 0	 0	 1	 1.02778	 0	 90	 1	 1.07778	 0.97778;
	 32	 1	 35.4	 3.8	 0	 0	 1	 1.02778	 0	 90	 1	 1.07778	 0.97778;
	 33	 1	 11	 5.1	 0	 0	 1	 1.02778	 0	 90	 1	 1.07778	 0.97778;
	 34	 1	 18.1	 4.6	 0	 0	 1	 1.02222	 0	 90	 1	 1.06667	 0.97778;
	 35	 1	 0	 0	 0	 0	 1	 1.02778	 0	 90	 1	 1.07778	 0.97778;
	 36	 1	 0	 0	 0	 0	 1	 1.04666	 0	 225	 1	 1.08889	 1.00444;
	 37	 1	 1.7	-0.2	 0	 0	 1	 1	 0	 63	 1	 1.04762	 0.95238;
	 38	 1	 35	-2.7	 0	 0	 1	 1.04666	 0	 225	 1	 1.08889	 1.00444;
	 39	 1	 17.8	-0.1	 0	 0	 1	 1.02778	 0	 90	 1	 1.07778	 0.97778;
	 40	 1	 16.4	-3.1	 0	 0	 1	 1	 0	 63	 1	 1.04762	 0.95238;
	 41	 1	 19.3	-0.9	 0	 0	 1	 1	 0	 63	 1	 1.04762	 0.95238;
	 42	 1	 34.9	 4.3	 0	 0	 1	 1.02778	 0	 90	 1	 1.07778	 0.97778;
	 43	 1	 0	 0	 0	 0	 1	 1.04444	 0	 225	 1	 1.08444	 1.00444;
	 44	 1	 95.2	 18.5	 0	 0	 1	 1	 0	 63	 1	 1.04762	 0.95238;
	 45	 1	 9	 1.1	 0	 0	 1	 1.02778	 0	 90	 1	 1.07778	 0.97778;
	 46	 1	 46.3	-1.4	 0	 0	 1	 1.02778	 0	 90	 1	 1.07778	 0.97778;
	 47	 1	 44.3	 7.2	 0	 0	 1	 1.02778	 0	 90	 1	 1.07778	 0.97778;
	 48	 1	 83.3	 17.1	 0	 0	 1	 1.04666	 0	 225	 1	 1.08889	 1.00444;
	 49	 1	 6.7	 0.6	 0	 0	 1	 1.02778	 0	 90	 1	 1.07778	 0.97778;
	 50	 1	 41.2	-4.9	 0	 0	 1	 1.02778	 0	 90	 1	 1.07778	 0.97778;
	 51	 1	 45.1	-2	 0	 0	 1	 1.02778	 0	 90	 1	 1.07778	 0.97778;
	 52	 1	 27.2	 12.2	 0	 0	 1	 1.02778	 0	 90	 1	 1.07778	 0.97778;
	 53	 1	 38.8	 12.4	 0	 0	 1	 1.04666	 0	 225	 1	 1.08889	 1.00444;
	 54	 1	-2.7	-3.4	 0	 0	 1	 1.02778	 0	 90	 1	 1.07778	 0.97778;
	 55	 1	 11.1	-0	 0	 0	 1	 1.02778	 0	 90	 1	 1.07778	 0.97778;
	 56	 1	 14	 1.6	 0	 0	 1	 1.02778	 0	 90	 1	 1.07778	 0.97778;
	 57	 1	 35.3	 6.2	 0	 0	 1	 1.02778	 0	 90	 1	 1.07778	 0.97778;
	 58	 1	 0	 0	 0	 0	 1	 1.04666	 0	 225	 1	 1.08889	 1.00444;
	 59	 1	 5.5	 0.8	 0	 0	 1	 1.04666	 0	 225	 1	 1.08889	 1.00444;
	 60	 1	 5	 9.5	 0	 0	 1	 1.04666	 0	 225	 1	 1.08889	 1.00444;
	 61	 1	 0	 0	 0	 0	 1	 1.07369	 0	 380	 1	 1.10526	 1.04211;
	 62	 1	 0	 0	 0	 0	 1	 1.07369	 0	 380	 1	 1.10526	 1.04211;
	 63	 2	 0	 0	 0	 0	 1	 1.02778	 0	 90	 1	 1.07778	 0.97778;
	 64	 1	 17.4	-0.8	 0	 0	 1	 1.04666	 0	 225	 1	 1.08889	 1.00444;
	 65	 1	 37.9	 9.9	 0	 0	 1	 1.02778	 0	 90	 1	 1.07778	 0.97778;
	 66	 1	 20.5	 5.4	 0	 0	 1	 1.02778	 0	 90	 1	 1.07778	 0.97778;
	 67	 1	 31.4	 3.7	 0	 0	 1	 1.02778	 0	 90	 1	 1.07778	 0.97778;
	 68	 1	 4.6	-2	 0	 0	 1	 1.02778	 0	 90	 1	 1.07778	 0.97778;
	 69	 1	 91.8	 12.7	 0	 0	 1	 1.04666	 0	 225	 1	 1.08889	 1.00444;
	 70	 1	 0	 0.2	 0	 0	 1	 1	 0	 63	 1	 1.04762	 0.95238;
	 71	 1	 0	 0	 0	 0	 1	 1.00327	 0	 63	 1	 1.05416	 0.95238;
	 72	 1	 25.4	 0.5	 0	 0	 1	 1.02222	 0	 90	 1	 1.06667	 0.97778;
	 73	 1	 0	 0	 0	 29	 1	 1.02222	 0	 90	 1	 1.06667	 0.97778;
	 74	 1	 0	 0	 0	 0	 1	 1.04444	 0	 225	 1	 1.08444	 1.00444;
	 75	 1	 0	 0	 0	 0	 1	 1.02778	 0	 90	 1	 1.07778	 0.97778;
	 76	 1	 0	 0	 0	 0	 1	 1.02778	 0	 90	 1	 1.07778	 0.97778;
	 77	 1	 0	 0	 0	 0	 1	 1.02778	 0	 90	 1	 1.07778	 0.97778;
	 78	 1	 0	 0	 0	 0	 1	 1.04666	 0	 225	 1	 1.08889	 1.00444;
	 79	 1	 13.5	 10	 0	 0	 1	 1.02778	 0	 90	 1	 1.07778	 0.97778;
	 80	 1	 0	-0.9	 0	 0	 1	 1.02778	 0	 90	 1	 1.07778	 0.97778;
	 81	 1	 174.6	 29.7	 0	 0	 1	 1.04666	 0	 225	 1	 1.08889	 1.00444;
	 82	 1	 14.8	-1.3	 0	 0	 1	 1.02778	 0	 90	 1	 1.07778	 0.97778;
	 83	 1	 54.2	 3.6	 0	 0	 1	 1.02778	 0	 90	 1	 1.07778	 0.97778;
	 84	 1	 27.6	 3.6	 0	 0	 1	 1.02778	 0	 90	 1	 1.07778	 0.97778;
	 85	 1	 34.6	-4.8	 0	 0	 1	 1.02778	 0	 90	 1	 1.07778	 0.97778;
	 86	 1	 0	 0	 0	 30	 1	 1.02222	 0	 90	 1	 1.06667	 0.97778;
	 87	 1	 0	 0	 0	 0	 1	 1.04444	 0	 225	 1	 1.08444	 1.00444;
	 88	 1	 11	 3.1	 0	 0	 1	 1.02778	 0	 90	 1	 1.07778	 0.97778;
	 89	 1	 40.1	-2.5	 0	 0	 1	 1.02778	 0	 90	 1	 1.07778	 0.97778;
	 90	 1	 0.2	-1	 0	 0	 1	 1.02778	 0	 90	 1	 1.07778	 0.97778;
	 91	 1	 61	 14.7	 0	 0	 1	 1.04666	 0	 225	 1	 1.08889	 1.00444;
	 92	 1	 6.9	 1	 0	 0	 1	 1.02778	 0	 90	 1	 1.07778	 0.97778;
	 93	 1	 16.4	-0.2	 0	 0	 1	 1	 0	 63	 1	 1.04762	 0.95238;
	 94	 1	 0	 0	 0	 0	 1	 1.02222	 0	 90	 1	 1.06667	 0.97778;
	 95	 1	 75.6	 14.1	 0	 0	 1	 1.02778	 0	 90	 1	 1.07778	 0.97778;
	 96	 1	-0.1	 1.3	 0	 0	 1	 1.02778	 0	 90	 1	 1.07778	 0.97778;
	 97	 1	 38.3	 1.1	 0	 0	 1	 1.02778	 0	 90	 1	 1.07778	 0.97778;
	 98	 1	 21.5	-0.3	 0	 0	 1	 1.02778	 0	 90	 1	 1.07778	 0.97778;
	 99	 1	 17.6	 0.1	 0	 0	 1	 1.02778	 0	 90	 1	 1.07778	 0.97778;
	 100	 1	 60.9	 13.9	 0	 0	 1	 1	 0	 63	 1	 1.04762	 0.95238;
	 101	 1	 29.4	 6.4	 0	 0	 1	 1.04666	 0	 225	 1	 1.08889	 1.00444;
	 102	 1	 4.8	 1.8	 0	 0	 1	 1.02778	 0	 90	 1	 1.07778	 0.97778;
	 103	 1	 14.6	-0.6	 0	 0	 1	 1.02778	 0	 90	 1	 1.07778	 0.97778;
	 104	 1	 18.7	 4.6	 0	 0	 1	 1.02778	 0	 90	 1	 1.07778	 0.97778;
	 105	 1	 77.5	 4.1	 0	 0	 1	 1.02778	 0	 90	 1	 1.07778	 0.97778;
	 106	 1	 38.1	 4.5	 0	 0	 1	 1.02778	 0	 90	 1	 1.07778	 0.97778;
	 107	 1	 20	 5.2	 0	 0	 1	 1.02778	 0	 90	 1	 1.07778	 0.97778;
	 108	 1	 26.3	 3.2	 0	 0	 1	 1.02778	 0	 90	 1	 1.07778	 0.97778;
	 109	 1	 60.1	 5.9	 0	 0	 1	 1.02778	 0	 90	 1	 1.07778	 0.97778;
	 110	 1	 40.5	 6.4	 0	 0	 1	 1.02778	 0	 90	 1	 1.07778	 0.97778;
	 111	 1	 44.4	 10.6	 0	 0	 1	 1.04666	 0	 225	 1	 1.08889	 1.00444;
	 112	 1	 25.9	 0.8	 0	 0	 1	 1.02778	 0	 90	 1	 1.07778	 0.97778;
	 113	 1	 25.8	 10.5	 0	 30	 1	 1.0044	 0	 63	 1	 1.05641	 0.95238;
	 114	 1	 133.4	 23.4	 0	 0	 1	 1.04666	 0	 225	 1	 1.08889	 1.00444;
	 115	 1	 0	 0	 0	 0	 1	 1.04666	 0	 225	 1	 1.08889	 1.00444;
	 116	 2	-1	 0	 0	 0	 1	 1	 0	 63	 1	 1.04762	 0.95238;
	 117	 1	-9	 0.8	 0	 0	 1	 1.04666	 0	 225	 1	 1.08889	 1.00444;
	 118	 1	 26.8	 4.5	 0	 0	 1	 1.02778	 0	 90	 1	 1.07778	 0.97778;
	 119	 1	 0	 0	 0	 0	 1	 1.02222	 0	 90	 1	 1.06667	 0.97778;
	 120	 1	 9.8	 3.4	 0	 0	 1	 1.02778	 0	 90	 1	 1.07778	 0.97778;
	 121	 1	 1.4	 0.7	 0	 0	 1	 1.02778	 0	 90	 1	 1.07778	 0.97778;
	 122	 1	 58.5	-7.8	 0	 0	 1	 1.02778	 0	 90	 1	 1.07778	 0.97778;
	 123	 1	 52.5	 3.3	 0	 0	 1	 1.02778	 0	 90	 1	 1.07778	 0.97778;
	 124	 1	 15	-1	 0	 0	 1	 1.02778	 0	 90	 1	 1.07778	 0.97778;
	 125	 1	 0.4	-4.4	 0	 0	 1	 1.07369	 0	 380	 1	 1.10526	 1.04211;
	 126	 1	 21.4	 8.8	 0	 0	 1	 1.07369	 0	 380	 1	 1.10526	 1.04211;
	 127	 1	 20.8	-5.2	 0	 0	 1	 1.07369	 0	 380	 1	 1.10526	 1.04211;
	 128	 1	 0.4	-2.4	 0	 0	 1	 1.07369	 0	 380	 1	 1.10526	 1.04211;
	 129	 1	 79.8	 5.4	 0	 30.4	 1	 1.02778	 0	 90	 1	 1.07778	 0.97778;
	 130	 1	 0	 0	 0	 80	 1	 1.04666	 0	 225	 1	 1.08889	 1.00444;
	 131	 1	 11.2	 2.4	 0	 0	 1	 1	 0	 63	 1	 1.04762	 0.95238;
	 132	 1	 43.5	 8.7	 0	 0	 1	 1.04666	 0	 225	 1	 1.08889	 1.00444;
	 133	 1	 35	 5.7	 0	 0	 1	 1.04666	 0	 225	 1	 1.08889	 1.00444;
	 134	 1	 49.8	-1.9	 0	 0	 1	 1.02222	 0	 90	 1	 1.06667	 0.97778;
	 135	 1	 30.4	-4.3	 0	 0	 1	 1.02778	 0	 90	 1	 1.07778	 0.97778;
	 136	 1	 3	 0	 0	 0	 1	 1.02778	 0	 90	 1	 1.07778	 0.97778;
	 137	 1	-1.4	-0.5	 0	 0	 1	 1.02778	 0	 90	 1	 1.07778	 0.97778;
	 138	 1	 15.9	 2.1	 0	 0	 1	 1.02222	 0	 90	 1	 1.06667	 0.97778;
	 139	 1	 36	 18.4	 0	 0	 1	 1.04666	 0	 225	 1	 1.08889	 1.00444;
	 140	 1	-1.2	-2.9	 0	 0	 1	 1.04666	 0	 225	 1	 1.08889	 1.00444;
	 141	 1	 0	 0	 0	 0	 1	 1.02778	 0	 90	 1	 1.07778	 0.97778;
	 142	 1	 0	 0	 0	 0	 1	 1.02778	 0	 90	 1	 1.07778	 0.97778;
	 143	 1	 0.8	 1.7	 0	 0	 1	 1.02778	 0	 90	 1	 1.07778	 0.97778;
	 144	 1	 0	 0	 0	 0	 1	 1.02778	 0	 90	 1	 1.07778	 0.97778;
	 145	 1	 0	 0	 0	 0	 1	 1.04666	 0	 225	 1	 1.08889	 1.00444;
	 146	 1	 14.4	-2	 0	 0	 1	 1.02778	 0	 90	 1	 1.07778	 0.97778;
	 147	 1	 32.4	 1.8	 0	 0	 1	 1.02778	 0	 90	 1	 1.07778	 0.97778;
	 148	 1	 1.2	-2.2	 0	 0	 1	 1.02778	 0	 90	 1	 1.07778	 0.97778;
	 149	 1	 30.1	-0.5	 0	 0	 1	 1.02778	 0	 90	 1	 1.07778	 0.97778;
	 150	 1	 0	 0	 0	 0	 1	 1	 0	 63	 1	 1.04762	 0.95238;
	 151	 1	 27.9	-0.2	 0	 0	 1	 1.02778	 0	 90	 1	 1.07778	 0.97778;
	 152	 1	 27	 4.6	 0	 0	 1	 1.02778	 0	 90	 1	 1.07778	 0.97778;
	 153	 1	 16.1	-1.8	 0	 0	 1	 1.02778	 0	 90	 1	 1.07778	 0.97778;
	 154	 1	 0	 0	 0	 0	 1	 1.04666	 0	 225	 1	 1.08889	 1.00444;
	 155	 2	 0	 0	 0	 0	 1	 1.02778	 0	 90	 1	 1.07778	 0.97778;
	 156	 1	 54.8	 5.7	 0	 0	 1	 1.02778	 0	 90	 1	 1.07778	 0.97778;
	 157	 1	 0	 0	 0	 0	 1	 1.04666	 0	 225	 1	 1.08889	 1.00444;
	 158	 1	 65.8	 20.9	 0	 0	 1	 1.02778	 0	 90	 1	 1.07778	 0.97778;
	 159	 1	 26.1	 1	 0	 0	 1	 1.02778	 0	 90	 1	 1.07778	 0.97778;
	 160	 1	 2	 4.9	 0	 0	 1	 1	 0	 63	 1	 1.04762	 0.95238;
	 161	 1	 6.2	 0.2	 0	 0	 1	 1.04666	 0	 225	 1	 1.08889	 1.00444;
	 162	 1	 0	 0	 0	 0	 1	 1.07369	 0	 380	 1	 1.10526	 1.04211;
	 163	 1	 11.2	 0	 0	 0	 1	 1.04666	 0	 225	 1	 1.08889	 1.00444;
	 164	 1	-5.8	 8.7	 0	 0	 1	 1.04666	 0	 225	 1	 1.08889	 1.00444;
	 165	 1	-8.2	 2.3	 0	 0	 1	 1.07369	 0	 380	 1	 1.10526	 1.04211;
	 166	 1	 26.6	 11.9	 0	 0	 1	 1	 0	 63	 1	 1.04762	 0.95238;
	 167	 1	 78.2	 8.9	 0	 0	 1	 1.04666	 0	 225	 1	 1.08889	 1.00444;
	 168	 1	 123.2	 36.6	 0	 0	 1	 1.04666	 0	 225	 1	 1.08889	 1.00444;
	 169	 1	 31.1	 0.6	 0	 0	 1	 1.02778	 0	 90	 1	 1.07778	 0.97778;
	 170	 1	 94.6	 6.3	 0	 0	 1	 1.04666	 0	 225	 1	 1.08889	 1.00444;
	 171	 1	 65.3	 10	 0	 0	 1	 1.04666	 0	 225	 1	 1.08889	 1.00444;
	 172	 1	 55.1	 8.8	 0	 0	 1	 1.04666	 0	 225	 1	 1.08889	 1.00444;
	 173	 1	 29.5	-1.4	 0	 0	 1	 1.02778	 0	 90	 1	 1.07778	 0.97778;
	 174	 1	 18.1	 1.9	 0	 0	 1	 1.02778	 0	 90	 1	 1.07778	 0.97778;
	 175	 1	 0	 0	 0	 0	 1	 1	 0	 63	 1	 1.04762	 0.95238;
	 176	 1	 23.9	-0.2	 0	 0	 1	 1.02778	 0	 90	 1	 1.07778	 0.97778;
	 177	 1	 16.5	 12.3	 0	 0	 1	 1.04666	 0	 225	 1	 1.08889	 1.00444;
	 178	 1	 16.5	 16.3	 0	 0	 1	 1.04666	 0	 225	 1	 1.08889	 1.00444;
	 179	 1	 8.8	 0.9	 0	 0	 1	 1.02222	 0	 90	 1	 1.06667	 0.97778;
	 180	 1	 0	 0	 0	 30.4	 1	 1.02778	 0	 90	 1	 1.07778	 0.97778;
	 181	 1	 0	 0	 0	 0	 1	 1.04666	 0	 225	 1	 1.08889	 1.00444;
	 182	 1	 0	 0	 0	 0	 1	 1.07369	 0	 380	 1	 1.10526	 1.04211;
	 183	 1	 26.2	-2.4	 0	 0	 1	 1.02778	 0	 90	 1	 1.07778	 0.97778;
	 184	 1	 53.8	 3.5	 0	 0	 1	 1.04666	 0	 225	 1	 1.08889	 1.00444;
	 185	 1	 16.2	 10.4	 0	 0	 1	 1.04666	 0	 225	 1	 1.08889	 1.00444;
	 186	 1	 33.4	 9	 0	 0	 1	 1	 0	 63	 1	 1.04762	 0.95238;
	 187	 1	 0	 0	 0	 0	 1	 1	 0	 63	 1	 1.04762	 0.95238;
	 188	 1	 25.8	 2	 0	 0	 1	 1	 0	 63	 1	 1.04762	 0.95238;
	 189	 1	 46.9	 1.5	 0	 0	 1	 1.02778	 0	 90	 1	 1.07778	 0.97778;
	 190	 1	 14.3	-0.2	 0	 0	 1	 1.02778	 0	 90	 1	 1.07778	 0.97778;
	 191	 1	 40.4	 4.9	 0	 0	 1	 1.02778	 0	 90	 1	 1.07778	 0.97778;
	 192	 1	 30.2	 4.3	 0	 0	 1	 1.02778	 0	 90	 1	 1.07778	 0.97778;
	 193	 1	 30.2	 0.3	 0	 0	 1	 1.02778	 0	 90	 1	 1.07778	 0.97778;
	 194	 1	 49.9	 12.8	 0	 0	 1	 1	 0	 63	 1	 1.04762	 0.95238;
	 195	 1	 43.5	 3.6	 0	 0	 1	 1.02778	 0	 90	 1	 1.07778	 0.97778;
	 196	 1	 16.4	 0.3	 0	 0	 1	 1.02778	 0	 90	 1	 1.07778	 0.97778;
	 197	 1	 30.9	-1	 0	 0	 1	 1.02778	 0	 90	 1	 1.07778	 0.97778;
	 198	 1	 33	 6.7	 0	 0	 1	 1.02222	 0	 90	 1	 1.06667	 0.97778;
	 199	 1	 2.5	-0.5	 0	 0	 1	 1.02778	 0	 90	 1	 1.07778	 0.97778;
	 200	 1	 24.6	-1.2	 0	 0	 1	 1.04666	 0	 225	 1	 1.08889	 1.00444;
...
];

mpc_regionR2.gen = [
%	bus         Pg          Qg          Qmax        Qmin        Vg          mBase       status      Pmax        Pmin        Pc1         Pc2         Qc1min      Qc1max      Qc2min      Qc2max      ramp_agc    ramp_10     ramp_30     ramp_q      apf         
	 3	 0	 0	 0	 0	 1.027779	 100	 0	 8	 0;
	 22	 0	 0	 0	 0	 1.027779	 100	 0	 2.3	 0;
	 22	 0	 0	 0	 0	 1.027779	 100	 0	 19.5	 0;
	 42	 0	 0	 0	 0	 1.027779	 100	 0	 7.5	 0;
	 42	 0	 0	 0	 0	 1.027779	 100	 0	 24	 0;
	 56	 0	 0	 0	 0	 1.027779	 100	 0	 14	 0;
	 63	 0	 3.09	 22	-10	 1.027779	 100	 0	 49	 0;
	 63	 0	 3.09	 7	-3	 1.027779	 100	 0	 15	 0;
	 63	 0	 3.09	 22	-10	 1.027779	 100	 0	 49	 0;
	 72	 0	 0	 0	 0	 1.022224	 100	 0	 12	 0;
	 85	 0	 0	 0	 0	 1.027779	 100	 0	 11.2	 0;
	 99	 0	 0	 0	 0	 1.027779	 100	 0	 10	 0;
	 110	 0	 0	 0	 0	 1.027779	 100	 0	 12	 0;
	 110	 0	 0	 0	 0	 1.027779	 100	 0	 24	 0;
	 111	 0	 0	 0	 0	 1.046665	 100	 0	 4	 0;
	 116	 21	 5	 20	-10	 1.0000005	 100	 1	 42	 0;
	 118	 0	 0	 0	 0	 1.027779	 100	 0	 22	 0;
	 118	 0	 0	 0	 0	 1.027779	 100	 0	 10	 0;
	 123	 0	 0	 0	 0	 1.027779	 100	 0	 4.5	 0;
	 151	 0	 0	 0	 0	 1.027779	 100	 0	 12	 0;
	 155	 14.5	 3.5	 13	-6	 1.027779	 100	 1	 29	 0;
	 159	 0	 0	 0	 0	 1.027779	 100	 0	 9.2	 0;
	 179	 0	 0	 0	 0	 1.022224	 100	 0	 20.7	 0;
	 211	 0	 0	 0	 0	 1.027779	 100	 0	 13.8	 0;
	 214	 0	 0	 0	 0	 1.027779	 100	 0	 8.2	 0;
	 231	 0	 0	 0	 0	 1.027779	 100	 0	 9.2	 0;
	 232	 0	 0	 0	 0	 1.027779	 100	 0	 7.5	 0;
	 243	 0	 0	 0	 0	 1.027779	 100	 0	 8	 0;
	 243	 0	 0	 0	 0	 1.027779	 100	 0	 20	 0;
	 248	 0	 0	 0	 0	 1.027779	 100	 0	 12	 0;
	 272	 0	 0	 0	 0	 1.027779	 100	 0	 10	 0;
	 278	 0	 0	 0	 0	 1.022224	 100	 0	 10	 0;
	 281	 9	 0	 8	-8	 1.027779	 100	 1	 18	 0;
	 307	 0	 0	 0	 0	 1.027779	 100	 0	 2.4	 0;
	 345	 0	 0	 0	 0	 1.027779	 100	 0	 17.5	 0;
	 352	 0	 0	 0	 0	 1.027779	 100	 0	 3.3	 0;
	 357	 0	 0	 0	 0	 1.027779	 100	 0	 20	 0;
	 371	 0	 0	 0	 0	 1.027779	 100	 0	 20	 0;
	 372	 0	 0	 0	 0	 1.027779	 100	 0	 4	 0;
	 375	 0	 0	 0	 0	 1.022224	 100	 0	 10	 0;
	 454	 66.75	 21.35	 93.6	-50.9	 0.975	 100	 1	 125	 8.5;
	 455	 66.75	 21.35	 93.6	-50.9	 0.975	 100	 1	 125	 8.5;
	 456	 860	-28.245	 407.48	-463.97	 0.975	 100	 1	 1380	 340;
	 457	 860	-28.245	 407.48	-463.97	 0.975	 100	 1	 1380	 340;
	 458	 195	 33.755	 166.41	-98.9	 0.975	 100	 1	 260	 130;
	 459	 0	 0	 280.73	-126.32	 0.975	 100	 0	 585	 250;
	 460	 0	 0	 287.58	-119.25	 0.975	 100	 0	 585	 250;
	 461	 865	 235.84	 706.84	-235.16	 0.975	 100	 1	 1380	 350;
	 462	 865	 235.84	 706.84	-235.16	 0.975	 100	 1	 1380	 350;
	 463	 865	 230.335	 695.83	-235.16	 0.975	 100	 1	 1380	 350;
	 464	 820	 210.31	 681.31	-260.69	 0.975	 100	 1	 1290	 350;
	 465	 860	 234.135	 675.48	-207.21	 0.975	 100	 1	 1380	 340;
	 466	 860	 234.135	 675.48	-207.21	 0.975	 100	 1	 1380	 340;
	 467	 0	 0	 322.12	-100.08	 0.975	 100	 0	 585	 175;
	 468	 0	 0	 322.12	-100.08	 0.975	 100	 0	 585	 175;
	 469	 393	 119.02	 330.12	-92.08	 0.975	 100	 1	 598	 188;
	 470	 0	 0	 311.95	-109.4	 0.975	 100	 0	 585	 175;
];

mpc_regionR2.branch = [
%	fbus        tbus        r           x           b           rateA       rateB       rateC       ratio       angle       status      angmin      angmax      
	 84	 1	 0.04	 0.134198	 0.0274	 217	 217	 217	 0	 0	 1	-30	 30;
	 211	 1	 0.012222	 0.052346	 0.0026	 565	 565	 565	 0	 0	 1	-30	 30;
	 334	 1	 0.007284	 0.045432	 0.0024	 660	 660	 660	 0	 0	 1	-30	 30;
	 372	 1	 0.059963	 0.154222	 0.0236	 184	 184	 184	 0	 0	 1	-30	 30;
	 388	 1	 0.018025	 0.110988	 0.0073	 270	 270	 270	 0	 0	 1	-30	 30;
	 211	 1	 0.012222	 0.052593	 0.0032	 562	 562	 562	 0	 0	 1	-30	 30;
	 334	 1	 0.007284	 0.044938	 0.0024	 667	 667	 667	 0	 0	 1	-30	 30;
	 86	 2	 0.009877	 0.042222	 0.0021	 697	 697	 697	 0	 0	 1	-30	 30;
	 438	 2	 0.024815	 0.063086	 0.0029	 446	 446	 446	 0	 0	 1	-30	 30;
	 86	 2	 0.009877	 0.042222	 0.0021	 697	 697	 697	 0	 0	 1	-30	 30;
	 169	 3	 0.056173	 0.142593	 0.0066	 198	 198	 198	 0	 0	 1	-30	 30;
	 334	 3	 0.034444	 0.109012	 0.0076	 266	 266	 266	 0	 0	 1	-30	 30;
	 199	 4	 0.001481	 0.006296	 0.0039	 4689	 4689	 4689	 0	 0	 1	-30	 30;
	 27	 5	 0.000257	 0.000514	 0.0294	 53862	 53862	 53862	 0	 0	 1	-30	 30;
	 245	 6	 0.000237	 0.00083	 0.1863	 268	 268	 268	 0	 0	 1	-30	 30;
	 270	 6	 0.000178	 0.000612	 0.1377	 268	 268	 268	 0	 0	 1	-30	 30;
	 287	 7	 9.9e-05	 0.00077	 0.078	 379	 379	 379	 0	 0	 1	-30	 30;
	 287	 8	 9.9e-05	 0.00077	 0.077	 379	 379	 379	 0	 0	 1	-30	 30;
	 262	 9	 0.000257	 0.001165	 0.002	 405	 405	 405	 0	 0	 1	-30	 30;
	 183	 10	 0.033531	 0.087235	 0.0166	 325	 325	 325	 0	 0	 1	-30	 30;
	 315	 10	 0.03037	 0.08321	 0.0039	 343	 343	 343	 0	 0	 1	-30	 30;
	 301	 11	 0.026543	 0.074691	 0.0034	 383	 383	 383	 0	 0	 1	-30	 30;
	 300	 11	 0.026914	 0.075802	 0.0034	 377	 377	 377	 0	 0	 1	-30	 30;
	 81	 12	 0.000178	 0.001047	 0.1499	 452	 452	 452	 0	 0	 1	-30	 30;
	 245	 12	 0.000316	 0.002232	 0.2774	 452	 452	 452	 0	 0	 1	-30	 30;
	 146	 13	 0.060864	 0.152469	 0.0071	 185	 185	 185	 0	 0	 1	-30	 30;
	 357	 13	 0.058222	 0.146864	 0.007	 192	 192	 192	 0	 0	 1	-30	 30;
	 109	 14	 0.006173	 0.026296	 0.0015	 1123	 1123	 1123	 0	 0	 1	-30	 30;
	 338	 14	 0.039753	 0.105062	 0.0073	 270	 270	 270	 0	 0	 1	-30	 30;
	 437	 14	 0.010617	 0.027407	 0.0034	 1032	 1032	 1032	 0	 0	 1	-30	 30;
	 109	 14	 0.006173	 0.026173	 0.0013	 1128	 1128	 1128	 0	 0	 1	-30	 30;
	 431	 15	 0.001975	 0.013215	 0.0243	 541	 541	 541	 0	 0	 1	-30	 30;
	 432	 15	 0.001956	 0.013037	 0.0243	 2348	 2348	 2348	 0	 0	 1	-30	 30;
	 66	 16	 0.004314	 0.007897	 0.0123	 3370	 3370	 3370	 0	 0	 1	-30	 30;
	 425	 17	 0.012296	 0.031173	 0.0015	 905	 905	 905	 0	 0	 1	-30	 30;
	 441	 17	 0.020988	 0.06716	 0.0032	 431	 431	 431	 0	 0	 1	-30	 30;
	 33	 18	 0.000741	 0.001358	 0.0036	 19602	 19602	 19602	 0	 0	 1	-30	 30;
	 79	 18	 0.044444	 0.111728	 0.0053	 253	 253	 253	 0	 0	 1	-30	 30;
	 94	 18	 0.093457	 0.227654	 0.0115	 123	 123	 123	 0	 0	 1	-30	 30;
	 124	 18	 0.024938	 0.06642	 0.0032	 428	 428	 428	 0	 0	 1	-30	 30;
	 146	 18	 0.045309	 0.116049	 0.0055	 244	 244	 244	 0	 0	 1	-30	 30;
	 307	 18	 0.06758	 0.184444	 0.0162	 155	 155	 155	 0	 0	 1	-30	 30;
	 370	 18	 0.065062	 0.177531	 0.0083	 161	 161	 161	 0	 0	 1	-30	 30;
	 25	 19	 0.004563	 0.030696	 0.0557	 541	 541	 541	 0	 0	 1	-30	 30;
	 74	 19	 0.009857	 0.04478	 0.077	 405	 405	 405	 0	 0	 1	-30	 30;
	 212	 19	 0.017106	 0.078321	 0.1387	 362	 362	 362	 0	 0	 1	-30	 30;
	 339	 19	 0.010272	 0.048691	 0.0866	 354	 354	 354	 0	 0	 1	-30	 30;
	 180	 20	 0.032259	 0.085247	 0.0109	 333	 333	 333	 0	 0	 1	-30	 30;
	 372	 20	 0.051284	 0.130198	 0.0139	 217	 217	 217	 0	 0	 1	-30	 30;
	 379	 20	 0.049012	 0.133827	 0.0063	 213	 213	 213	 0	 0	 1	-30	 30;
	 180	 20	 0.006543	 0.026148	 0.1306	 1126	 1126	 1126	 0	 0	 1	-30	 30;
	 66	 21	 0.025309	 0.057778	 0.0026	 481	 481	 481	 0	 0	 1	-30	 30;
	 383	 21	 0.000741	 0.001852	 0.0002	 15203	 15203	 15203	 0	 0	 1	-30	 30;
	 42	 22	 0.048272	 0.114444	 0.0049	 245	 245	 245	 0	 0	 1	-30	 30;
	 123	 22	 0.065679	 0.150988	 0.0068	 185	 185	 185	 0	 0	 1	-30	 30;
	 235	 23	 0.000395	 0.006648	 0.2426	 2487	 2487	 2487	 0	 0	 1	-30	 30;
	 240	 23	 0.000492	 0.008345	 0.3032	 2487	 2487	 2487	 0	 0	 1	-30	 30;
	 289	 24	 0.001198	 0.015699	 0.5401	 2026	 2026	 2026	 0	 0	 1	-30	 30;
	 295	 24	 0.000734	 0.010623	 0.2772	 2487	 2487	 2487	 0	 0	 1	-30	 30;
	 362	 24	 0.000305	 0.003975	 0.1386	 2487	 2487	 2487	 0	 0	 1	-30	 30;
	 236	 23	 0.000395	 0.006641	 0.2426	 2487	 2487	 2487	 0	 0	 1	-30	 30;
	 240	 24	 0.000492	 0.008338	 0.3032	 2487	 2487	 2487	 0	 0	 1	-30	 30;
	 289	 23	 0.001184	 0.015568	 0.5372	 2043	 2043	 2043	 0	 0	 1	-30	 30;
	 295	 23	 0.000734	 0.010623	 0.2772	 2487	 2487	 2487	 0	 0	 1	-30	 30;
	 362	 23	 0.000305	 0.003982	 0.1386	 2487	 2487	 2487	 0	 0	 1	-30	 30;
	 237	 24	 0.000388	 0.0066	 0.2397	 2487	 2487	 2487	 0	 0	 1	-30	 30;
	 234	 24	 0.000388	 0.006593	 0.2397	 2487	 2487	 2487	 0	 0	 1	-30	 30;
	 38	 25	 0.003496	 0.023269	 0.0425	 575	 575	 575	 0	 0	 1	-30	 30;
	 53	 26	 2e-05	 0.000198	 0.0081	 155535	 155535	 155535	 0	 0	 1	-30	 30;
	 245	 26	 0.000296	 0.000988	 0.2207	 288	 288	 288	 0	 0	 1	-30	 30;
	 245	 27	 0.000257	 0.000928	 0.1134	 331	 331	 331	 0	 0	 1	-30	 30;
	 305	 28	 0.033333	 0.08321	 0.0039	 339	 339	 339	 0	 0	 1	-30	 30;
	 391	 28	 0.016543	 0.041975	 0.0019	 673	 673	 673	 0	 0	 1	-30	 30;
	 36	 29	 0.000178	 0.000909	 0.002	 405	 405	 405	 0	 0	 1	-30	 30;
	 266	 30	 0.011086	 0.028219	 0.0301	 945	 945	 945	 0	 0	 1	-30	 30;
	 266	 30	 0.011086	 0.028219	 0.0302	 945	 945	 945	 0	 0	 1	-30	 30;
	 301	 31	 0.017654	 0.074815	 0.0076	 395	 395	 395	 0	 0	 1	-30	 30;
	 300	 31	 0.017778	 0.074074	 0.0081	 399	 399	 399	 0	 0	 1	-30	 30;
	 110	 32	 0.021111	 0.121111	 0.006	 247	 247	 247	 0	 0	 1	-30	 30;
	 388	 32	 0.016173	 0.091235	 0.005	 328	 328	 328	 0	 0	 1	-30	 30;
	 73	 34	 0.053086	 0.144321	 0.0068	 194	 194	 194	 0	 0	 1	-30	 30;
	 152	 35	 0.02037	 0.05358	 0.0045	 530	 530	 530	 0	 0	 1	-30	 30;
	 195	 35	 0.017901	 0.057778	 0.0028	 502	 502	 502	 0	 0	 1	-30	 30;
	 216	 35	 0.000988	 0.004074	 0.0005	 7234	 7234	 7234	 0	 0	 1	-30	 30;
	 435	 35	 0.005185	 0.016049	 0.0008	 1798	 1798	 1798	 0	 0	 1	-30	 30;
	 212	 36	 0.003358	 0.02242	 0.0415	 471	 471	 471	 0	 0	 1	-30	 30;
	 431	 36	 0.003437	 0.022933	 0.0425	 540	 540	 540	 0	 0	 1	-30	 30;
	 246	 37	 0.03351	 0.069539	 0.0067	 372	 372	 372	 0	 0	 1	-30	 30;
	 433	 37	 0.031368	 0.064752	 0.001	 399	 399	 399	 0	 0	 1	-30	 30;
	 294	 38	 0.001699	 0.011299	 0.0213	 575	 575	 575	 0	 0	 1	-30	 30;
	 72	 39	 0.050864	 0.130617	 0.006	 216	 216	 216	 0	 0	 1	-30	 30;
	 180	 39	 0.040741	 0.103704	 0.0049	 273	 273	 273	 0	 0	 1	-30	 30;
	 384	 41	 0.000504	 0.003023	 0	 9349	 9349	 9349	 0	 0	 1	-30	 30;
	 385	 40	 0.000252	 0.00252	 0.0001	 11313	 11313	 11313	 0	 0	 1	-30	 30;
	 105	 42	 0.02037	 0.085185	 0.0044	 347	 347	 347	 0	 0	 1	-30	 30;
	 151	 42	 0.015309	 0.066296	 0.0029	 446	 446	 446	 0	 0	 1	-30	 30;
	 407	 42	 0.046543	 0.147531	 0.0072	 197	 197	 197	 0	 0	 1	-30	 30;
	 386	 43	 2e-05	 9.9e-05	 0	 394	 394	 394	 0	 0	 1	-30	 30;
	 266	 44	 0.00952	 0.017427	 0.016	 1443	 1443	 1443	 0	 0	 1	-30	 30;
	 266	 44	 0.009515	 0.017417	 0.0159	 1444	 1444	 1444	 0	 0	 1	-30	 30;
	 266	 44	 0.008818	 0.016377	 0.0112	 1541	 1541	 1541	 0	 0	 1	-30	 30;
	 156	 45	 0.00358	 0.00716	 0.0277	 3789	 3789	 3789	 0	 0	 1	-30	 30;
	 359	 46	 0.015679	 0.040123	 0.0015	 704	 704	 704	 0	 0	 1	-30	 30;
	 57	 47	 0.026815	 0.072247	 0.0036	 394	 394	 394	 0	 0	 1	-30	 30;
	 359	 47	 0.004605	 0.022	 0.0888	 1350	 1350	 1350	 0	 0	 1	-30	 30;
	 111	 48	 0.00162	 0.007447	 0.0132	 322	 322	 322	 0	 0	 1	-30	 30;
	 285	 48	 0.000889	 0.005965	 0.0111	 575	 575	 575	 0	 0	 1	-30	 30;
	 359	 49	 0.008148	 0.020247	 0.0008	 1390	 1390	 1390	 0	 0	 1	-30	 30;
	 122	 50	 0.008889	 0.055185	 0.0031	 543	 543	 543	 0	 0	 1	-30	 30;
	 340	 50	 0.006914	 0.043457	 0.0023	 690	 690	 690	 0	 0	 1	-30	 30;
	 359	 51	 0.016543	 0.033951	 0.0016	 803	 803	 803	 0	 0	 1	-30	 30;
	 144	 52	 0.000988	 0.002716	 0.0133	 10493	 10493	 10493	 0	 0	 1	-30	 30;
	 144	 52	 0.000988	 0.002716	 0.0133	 10493	 10493	 10493	 0	 0	 1	-30	 30;
	 343	 54	 0.005062	 0.032222	 0.0048	 930	 930	 930	 0	 0	 1	-30	 30;
	 345	 54	 0.005802	 0.035926	 0.0019	 834	 834	 834	 0	 0	 1	-30	 30;
	 377	 55	 0.011852	 0.045062	 0.017	 651	 651	 651	 0	 0	 1	-30	 30;
	 440	 55	 0.000864	 0.002593	 0.0136	 11095	 11095	 11095	 0	 0	 1	-30	 30;
	 388	 56	 0.00284	 0.011235	 0.001	 2617	 2617	 2617	 0	 0	 1	-30	 30;
	 359	 57	 0.031568	 0.094272	 0.0992	 306	 306	 306	 0	 0	 1	-30	 30;
	 262	 58	 0.00322	 0.021136	 0.0395	 460	 460	 460	 0	 0	 1	-30	 30;
	 265	 58	 0.000553	 0.003694	 0.0071	 540	 540	 540	 0	 0	 1	-30	 30;
	 410	 59	 0.000494	 0.005689	 0.0142	 720	 720	 720	 0	 0	 1	-30	 30;
	 413	 58	 0.000652	 0.004504	 0.0081	 437	 437	 437	 0	 0	 1	-30	 30;
	 414	 58	 0.000652	 0.004504	 0.0081	 524	 524	 524	 0	 0	 1	-30	 30;
	 409	 59	 0.000514	 0.005689	 0.0142	 720	 720	 720	 0	 0	 1	-30	 30;
	 402	 60	 0.000869	 0.008435	 0.0339	 935	 935	 935	 0	 0	 1	-30	 30;
	 403	 60	 0.000889	 0.008553	 0.039	 935	 935	 935	 0	 0	 1	-30	 30;
	 213	 61	 0.000686	 0.007091	 0.1747	 1579	 1579	 1579	 0	 0	 1	-30	 30;
	 213	 62	 0.000686	 0.007119	 0.1747	 1579	 1579	 1579	 0	 0	 1	-30	 30;
	 83	 63	 0.001111	 0.00321	 0.0008	 8928	 8928	 8928	 0	 0	 1	-30	 30;
	 326	 64	 0.000164	 0.001106	 0.002	 471	 471	 471	 0	 0	 1	-30	 30;
	 343	 65	 0.01037	 0.027778	 0.0013	 1023	 1023	 1023	 0	 0	 1	-30	 30;
	 343	 66	 0.00963	 0.024815	 0.0016	 1140	 1140	 1140	 0	 0	 1	-30	 30;
	 343	 65	 0.009506	 0.025185	 0.0011	 1127	 1127	 1127	 0	 0	 1	-30	 30;
	 86	 67	 0.01037	 0.028395	 0.0013	 999	 999	 999	 0	 0	 1	-30	 30;
	 86	 67	 0.010247	 0.028395	 0.0013	 1001	 1001	 1001	 0	 0	 1	-30	 30;
	 83	 68	 0.009383	 0.039506	 0.007	 747	 747	 747	 0	 0	 1	-30	 30;
	 320	 68	 0.003615	 0.006617	 0.019	 4022	 4022	 4022	 0	 0	 1	-30	 30;
	 154	 69	 0.000751	 0.004978	 0.0091	 575	 575	 575	 0	 0	 1	-30	 30;
	 200	 69	 0.001738	 0.011694	 0.0213	 558	 558	 558	 0	 0	 1	-30	 30;
	 154	 69	 0.000652	 0.004346	 0.0081	 575	 575	 575	 0	 0	 1	-30	 30;
	 100	 70	 0.000252	 0.00252	 0.0016	 11313	 11313	 11313	 0	 0	 1	-30	 30;
	 389	 71	 0.000493	 0.000902	 0.0001	 28222	 28222	 28222	 0	 0	 1	-30	 30;
	 350	 72	 0.043803	 0.118383	 0.0061	 236	 236	 236	 0	 0	 1	-30	 30;
	 86	 73	 0.03642	 0.105309	 0.0052	 267	 267	 267	 0	 0	 1	-30	 30;
	 198	 73	 0.009136	 0.024568	 0.0011	 1134	 1134	 1134	 0	 0	 1	-30	 30;
	 419	 73	 0.009259	 0.024568	 0.0011	 1132	 1132	 1132	 0	 0	 1	-30	 30;
	 87	 74	 0.002601	 0.017284	 0.0324	 471	 471	 471	 0	 0	 1	-30	 30;
	 354	 75	 0.001358	 0.008148	 0.0005	 3672	 3672	 3672	 0	 0	 1	-30	 30;
	 353	 76	 0.001481	 0.009012	 0.0005	 3321	 3321	 3321	 0	 0	 1	-30	 30;
	 354	 77	 0.001481	 0.009259	 0.0005	 3234	 3234	 3234	 0	 0	 1	-30	 30;
	 111	 78	 0.004899	 0.033007	 0.0699	 440	 440	 440	 0	 0	 1	-30	 30;
	 293	 78	 0.005531	 0.037215	 0.0678	 575	 575	 575	 0	 0	 1	-30	 30;
	 347	 78	 0.004365	 0.029491	 0.0537	 575	 575	 575	 0	 0	 1	-30	 30;
	 293	 78	 0.005452	 0.036365	 0.0668	 575	 575	 575	 0	 0	 1	-30	 30;
	 373	 79	 0.06358	 0.165802	 0.0079	 171	 171	 171	 0	 0	 1	-30	 30;
	 82	 80	 0.000335	 0.000613	 0.001	 43410	 43410	 43410	 0	 0	 1	-30	 30;
	 225	 81	 0.000198	 0.000731	 0.647	 425	 425	 425	 0	 0	 1	-30	 30;
	 245	 81	 0.000652	 0.002351	 0.5123	 288	 288	 288	 0	 0	 1	-30	 30;
	 410	 81	 0.000593	 0.005649	 0.0223	 656	 656	 656	 0	 0	 1	-30	 30;
	 225	 81	 0.000182	 0.000622	 0.5559	 494	 494	 494	 0	 0	 1	-30	 30;
	 245	 81	 0.000652	 0.00237	 0.5133	 288	 288	 288	 0	 0	 1	-30	 30;
	 409	 81	 0.000612	 0.005669	 0.0278	 935	 935	 935	 0	 0	 1	-30	 30;
	 225	 81	 0.000237	 0.002114	 0.1954	 426	 426	 426	 0	 0	 1	-30	 30;
	 402	 81	 0.000217	 0.002054	 0.0197	 935	 935	 935	 0	 0	 1	-30	 30;
	 403	 81	 0.000217	 0.002035	 0.0147	 935	 935	 935	 0	 0	 1	-30	 30;
	 153	 82	 0.008148	 0.034197	 0.0016	 863	 863	 863	 0	 0	 1	-30	 30;
	 156	 82	 0.005679	 0.021975	 0.0137	 1337	 1337	 1337	 0	 0	 1	-30	 30;
	 310	 82	 0.000753	 0.001379	 0.0026	 19301	 19301	 19301	 0	 0	 1	-30	 30;
	 199	 83	 0.011482	 0.051111	 0.0026	 579	 579	 579	 0	 0	 1	-30	 30;
	 298	 83	 0.014938	 0.037654	 0.013	 749	 749	 749	 0	 0	 1	-30	 30;
	 299	 83	 0.015185	 0.037531	 0.0133	 749	 749	 749	 0	 0	 1	-30	 30;
	 324	 83	 0.000123	 0.001235	 0.0016	 24434	 24434	 24434	 0	 0	 1	-30	 30;
	 325	 83	 0.000123	 0.001235	 0.0016	 24434	 24434	 24434	 0	 0	 1	-30	 30;
	 379	 84	 0.044198	 0.12058	 0.0057	 237	 237	 237	 0	 0	 1	-30	 30;
	 390	 85	 0.049876	 0.126444	 0.006	 224	 224	 224	 0	 0	 1	-30	 30;
	 406	 86	 0.047901	 0.095926	 0.004	 278	 278	 278	 0	 0	 1	-30	 30;
	 391	 88	 0.00642	 0.026914	 0.0013	 1096	 1096	 1096	 0	 0	 1	-30	 30;
	 276	 89	 0.026914	 0.085062	 0.0049	 340	 340	 340	 0	 0	 1	-30	 30;
	 301	 89	 0.021235	 0.067654	 0.004	 428	 428	 428	 0	 0	 1	-30	 30;
	 354	 90	 0.000675	 0.001235	 0.0036	 21546	 21546	 21546	 0	 0	 1	-30	 30;
	 133	 91	 0.000559	 0.001024	 0.0729	 26532	 26532	 26532	 0	 0	 1	-30	 30;
	 303	 92	 0.001235	 0.003704	 0.0002	 7767	 7767	 7767	 0	 0	 1	-30	 30;
	 246	 93	 0.042983	 0.090073	 0.0047	 288	 288	 288	 0	 0	 1	-30	 30;
	 422	 93	 0.007811	 0.016125	 0.0002	 1600	 1600	 1600	 0	 0	 1	-30	 30;
	 230	 94	 0.014938	 0.040494	 0.0018	 689	 689	 689	 0	 0	 1	-30	 30;
	 279	 95	 0.002716	 0.007519	 0.0391	 3794	 3794	 3794	 0	 0	 1	-30	 30;
	 279	 95	 0.004631	 0.008476	 0.0207	 3140	 3140	 3140	 0	 0	 1	-30	 30;
	 393	 96	 0.001167	 0.002137	 0	 12455	 12455	 12455	 0	 0	 1	-30	 30;
	 129	 97	 0.034321	 0.087037	 0.004	 325	 325	 325	 0	 0	 1	-30	 30;
	 314	 98	 0.008272	 0.018519	 0.0008	 1496	 1496	 1496	 0	 0	 1	-30	 30;
	 373	 99	 0.033086	 0.086049	 0.004	 329	 329	 329	 0	 0	 1	-30	 30;
	 434	 99	 0.019753	 0.05	 0.0024	 565	 565	 565	 0	 0	 1	-30	 30;
	 266	 100	 0.002771	 0.013605	 0.0249	 2064	 2064	 2064	 0	 0	 1	-30	 30;
	 154	 101	 0.000336	 0.002173	 0.004	 471	 471	 471	 0	 0	 1	-30	 30;
	 276	 102	 0.00037	 0.000988	 0.004	 28743	 28743	 28743	 0	 0	 1	-30	 30;
	 395	 103	 0.000123	 0.001235	 0.0002	 24434	 24434	 24434	 0	 0	 1	-30	 30;
	 359	 104	 0.010124	 0.043086	 0.0021	 686	 686	 686	 0	 0	 1	-30	 30;
	 239	 105	 0.014568	 0.089753	 0.0079	 334	 334	 334	 0	 0	 1	-30	 30;
	 430	 105	 0.00716	 0.044074	 0.0024	 680	 680	 680	 0	 0	 1	-30	 30;
...
];

mpc_regionR2.gencost = [
%	2           startup     shutdown    n           c(n-1)...c0 
	 2	 0	 0	 3	 0	 34.735298	 0;
	 2	 0	 0	 3	 0	 111.85616	 0;
	 2	 0	 0	 3	 0	 100.708099	 0;
	 2	 0	 0	 3	 0	 47.672977	 0;
	 2	 0	 0	 3	 0	 126.982832	 0;
	 2	 0	 0	 3	 0	 37.292378	 0;
	 2	 0	 0	 3	 0	 102.530629	 0;
	 2	 0	 0	 3	 0	 32.899592	 0;
	 2	 0	 0	 3	 0	 36.810959	 0;
	 2	 0	 0	 3	 0	 36.911136	 0;
	 2	 0	 0	 3	 0	 25.548349	 0;
	 2	 0	 0	 3	 0	 37.768418	 0;
	 2	 0	 0	 3	 0	 36.887321	 0;
	 2	 0	 0	 3	 0	 107.530475	 0;
	 2	 0	 0	 3	 0	 44.591726	 0;
	 2	 0	 0	 3	 0	 47.980492	 0;
	 2	 0	 0	 3	 0	 36.198384	 0;
	 2	 0	 0	 3	 0	 46.694313	 0;
	 2	 0	 0	 3	 0	 113.332116	 0;
	 2	 0	 0	 3	 0	 23.195322	 0;
	 2	 0	 0	 3	 0	 51.477682	 0;
	 2	 0	 0	 3	 0	 49.591765	 0;
	 2	 0	 0	 3	 0	 99.778285	 0;
	 2	 0	 0	 3	 0	 5.409948	 0;
	 2	 0	 0	 3	 0	 7.873917	 0;
	 2	 0	 0	 3	 0	 40.280505	 0;
	 2	 0	 0	 3	 0	 116.62825	 0;
	 2	 0	 0	 3	 0	 110.823285	 0;
	 2	 0	 0	 3	 0	 46.755694	 0;
	 2	 0	 0	 3	 0	 28.058303	 0;
	 2	 0	 0	 3	 0	 17.031999	 0;
	 2	 0	 0	 3	 0	 31.448171	 0;
	 2	 0	 0	 3	 0	 106.40494	 0;
	 2	 0	 0	 3	 0	 116.736391	 0;
	 2	 0	 0	 3	 0	 96.089034	 0;
	 2	 0	 0	 3	 0	 45.815779	 0;
	 2	 0	 0	 3	 0	 42.797119	 0;
	 2	 0	 0	 3	 0	 41.728126	 0;
	 2	 0	 0	 3	 0	 32.206766	 0;
	 2	 0	 0	 3	 0	 31.337405	 0;
	 2	 0	 0	 3	 0	 36.626034	 0;
	 2	 0	 0	 3	 0	 18.411423	 0;
	 2	 0	 0	 3	 0	 28.952295	 0;
	 2	 0	 0	 3	 0	 32.962309	 0;
	 2	 0	 0	 3	 0	 39.826732	 0;
	 2	 0	 0	 3	 0	 32.944022	 0;
	 2	 0	 0	 3	 0	 18.384199	 0;
	 2	 0	 0	 3	 0	 7.194995	 0;
	 2	 0	 0	 3	 0	 29.487763	 0;
	 2	 0	 0	 3	 0	 24.207639	 0;
	 2	 0	 0	 3	 0	 23.587337	 0;
	 2	 0	 0	 3	 0	 20.163592	 0;
	 2	 0	 0	 3	 0	 30.175895	 0;
	 2	 0	 0	 3	 0	 101.867276	 0;
	 2	 0	 0	 3	 0	 26.192361	 0;
	 2	 0	 0	 3	 0	 25.47454	 0;
	 2	 0	 0	 3	 0	 28.897254	 0;
];


% -------------------- mpc_regionR3 --------------------

mpc_regionR3.version = '2';
mpc_regionR3.baseMVA = 100.0000;
mpc_regionR3.bus = [
%	bus_i       type        Pd          Qd          Gs          Bs          area        Vm          Va          baseKV      zone        Vmax        Vmin        
	 1	 1	 0	-1.3	 0	 0	 1	 1	 0	 63	 1	 1.04762	 0.95238;
	 2	 1	 75.5	 20.5	 0	 0	 1	 1.04666	 0	 225	 1	 1.08889	 1.00444;
	 3	 1	 69.4	 17.5	 0	 0	 1	 1	 0	 63	 1	 1.04762	 0.95238;
	 4	 1	 0	 0	 0	 0	 1	 1	 0	 63	 1	 1.04762	 0.95238;
	 5	 1	 32.4	 10.5	 0	 0	 1	 1.04666	 0	 225	 1	 1.08889	 1.00444;
	 6	 1	 32.4	 9.1	 0	 0	 1	 1.04666	 0	 225	 1	 1.08889	 1.00444;
	 7	 1	 14.7	 2.7	 0	 0	 1	 1	 0	 63	 1	 1.04762	 0.95238;
	 8	 1	 2.7	 0.4	 0	 0	 1	 1	 0	 63	 1	 1.04762	 0.95238;
	 9	 1	 101.1	 27.4	 0	 0	 1	 1.04666	 0	 225	 1	 1.08889	 1.00444;
	 10	 1	 0	 0	 0	 0	 1	 1.04666	 0	 225	 1	 1.08889	 1.00444;
	 11	 1	 0	 0	 0	 0	 1	 1.04666	 0	 225	 1	 1.08889	 1.00444;
	 12	 1	 0	 0	 0	 0	 1	 1	 0	 63	 1	 1.04762	 0.95238;
	 13	 1	 0	 0	 0	 0	 1	 1.04666	 0	 225	 1	 1.08889	 1.00444;
	 14	 1	 0	 0	 0	 0	 1	 1.008	 0	 63	 1	 1.06362	 0.95238;
	 15	 1	 0	 0	 0	 0	 1	 1.008	 0	 63	 1	 1.06362	 0.95238;
	 16	 1	 33.4	 13.1	 0	 0	 1	 1.04666	 0	 225	 1	 1.08889	 1.00444;
	 17	 1	 0	 0	 0	 0	 1	 1	 0	 63	 1	 1.04762	 0.95238;
	 18	 1	 32.5	 7.6	 0	 0	 1	 1.04666	 0	 225	 1	 1.08889	 1.00444;
	 19	 1	 66.3	 12.7	 0	 0	 1	 1.04666	 0	 225	 1	 1.08889	 1.00444;
	 20	 1	-1.7	 4.6	 0	 0	 1	 1.04666	 0	 225	 1	 1.08889	 1.00444;
	 21	 1	 32.2	 20.5	 0	 0	 1	 1.04666	 0	 225	 1	 1.08889	 1.00444;
	 22	 1	 34	-10.2	 0	 0	 1	 1	 0	 63	 1	 1.04762	 0.95238;
	 23	 2	-3	 0	 0	 0	 1	 1.04666	 0	 225	 1	 1.08889	 1.00444;
	 24	 1	 60	 14.2	 0	 0	 1	 1.04666	 0	 225	 1	 1.08889	 1.00444;
	 25	 1	 10	 3.6	 0	 0	 1	 1	 0	 63	 1	 1.04762	 0.95238;
	 26	 1	 0	 0	 0	 0	 1	 1	 0	 63	 1	 1.04762	 0.95238;
	 27	 1	 3.5	 3.3	 0	 0	 1	 1	 0	 63	 1	 1.04762	 0.95238;
	 28	 1	 12.9	-2.1	 0	 0	 1	 1	 0	 63	 1	 1.04762	 0.95238;
	 29	 1	 2.7	 1.6	 0	 0	 1	 1.07237	 0	 380	 1	 1.10526	 1.03947;
	 30	 1	 0	 0	 0	 0	 1	 1	 0	 63	 1	 1.04762	 0.95238;
	 31	 1	 31.6	 9.1	 0	 0	 1	 1	 0	 63	 1	 1.04762	 0.95238;
	 32	 1	 24.5	 6.2	 0	 0	 1	 1	 0	 63	 1	 1.04762	 0.95238;
	 33	 1	 25.2	 1.2	 0	 0	 1	 1	 0	 63	 1	 1.04762	 0.95238;
	 34	 2	 0	 0	 0	 0	 1	 1	 0	 63	 1	 1.04762	 0.95238;
	 35	 1	 2.7	 2.4	 0	 0	 1	 1	 0	 63	 1	 1.04762	 0.95238;
	 36	 1	 3.2	 1.4	 0	 0	 1	 1	 0	 63	 1	 1.04762	 0.95238;
	 37	 1	 3.2	 1.4	 0	 0	 1	 1	 0	 63	 1	 1.04762	 0.95238;
	 38	 1	 34.8	 11.6	 0	 0	 1	 1	 0	 63	 1	 1.04762	 0.95238;
	 39	 1	 68.7	 4.9	 0	 0	 1	 1.04666	 0	 225	 1	 1.08889	 1.00444;
	 40	 1	-0.7	 0.6	 0	 0	 1	 1.04666	 0	 225	 1	 1.08889	 1.00444;
	 41	 1	 12	 3	 0	 0	 1	 1	 0	 63	 1	 1.04762	 0.95238;
	 42	 1	 34.8	 4.5	 0	 0	 1	 1	 0	 63	 1	 1.04762	 0.95238;
	 43	 1	 0	 0	 0	 0	 1	 1.04666	 0	 225	 1	 1.08889	 1.00444;
	 44	 1	 30.9	-0.4	 0	 0	 1	 1	 0	 63	 1	 1.04762	 0.95238;
	 45	 1	 20	 3.7	 0	 0	 1	 1	 0	 63	 1	 1.04762	 0.95238;
	 46	 1	 22.9	 6.6	 0	 0	 1	 1	 0	 63	 1	 1.04762	 0.95238;
	 47	 1	 52.4	 12.2	 0	 0	 1	 1	 0	 63	 1	 1.04762	 0.95238;
	 48	 1	 81.4	 11.5	 0	 0	 1	 1.04666	 0	 225	 1	 1.08889	 1.00444;
	 49	 1	 114.2	 34.5	 0	 0	 1	 1.04666	 0	 225	 1	 1.08889	 1.00444;
	 50	 1	 26	 5.4	 0	 0	 1	 1.04666	 0	 225	 1	 1.08889	 1.00444;
	 51	 1	 19	 4.6	 0	 0	 1	 1	 0	 63	 1	 1.04762	 0.95238;
	 52	 1	 30.1	 5.6	 0	 0	 1	 1	 0	 63	 1	 1.04762	 0.95238;
	 53	 1	 55.5	 1.4	 0	 0	 1	 1.04666	 0	 225	 1	 1.08889	 1.00444;
	 54	 1	 0	 0	 0	 0	 1	 1.04666	 0	 225	 1	 1.08889	 1.00444;
	 55	 1	 15.9	 0.8	 0	 0	 1	 1	 0	 63	 1	 1.04762	 0.95238;
	 56	 1	 101.2	 26.8	 0	 0	 1	 1.04666	 0	 225	 1	 1.08889	 1.00444;
	 57	 1	 0.7	 0.9	 0	 0	 1	 1	 0	 63	 1	 1.04762	 0.95238;
	 58	 1	 7.7	 0.9	 0	 0	 1	 1	 0	 63	 1	 1.04762	 0.95238;
	 59	 1	 0	 0	 0	 0	 1	 1	 0	 63	 1	 1.04762	 0.95238;
	 60	 1	 0	 0	 0	 0	 1	 1.07369	 0	 380	 1	 1.10526	 1.04211;
	 61	 1	 0	 0	 0	 0	 1	 1	 0	 63	 1	 1.04762	 0.95238;
	 62	 1	 0	 0	 0	 0	 1	 1.04666	 0	 225	 1	 1.08889	 1.00444;
	 63	 1	 0	 0	 0	 0	 1	 1.04666	 0	 225	 1	 1.08889	 1.00444;
	 64	 1	 0	 0	 0	 0	 1	 1.04666	 0	 225	 1	 1.08889	 1.00444;
	 65	 1	 6	 0.2	 0	 0	 1	 1	 0	 63	 1	 1.04762	 0.95238;
	 66	 1	 78.5	 14	 0	 0	 1	 1.04666	 0	 225	 1	 1.08889	 1.00444;
	 67	 1	 66.3	 19.1	 0	 0	 1	 1.04666	 0	 225	 1	 1.08889	 1.00444;
	 68	 1	 0	 0	 0	 0	 1	 1	 0	 63	 1	 1.04762	 0.95238;
	 69	 1	 36.2	 6.1	 0	 0	 1	 1.04666	 0	 225	 1	 1.08889	 1.00444;
	 70	 1	 10.1	 4.4	 0	 0	 1	 1.04666	 0	 225	 1	 1.08889	 1.00444;
	 71	 1	 47.9	 12.1	 0	 0	 1	 1	 0	 63	 1	 1.04762	 0.95238;
	 72	 1	 92.7	 17.4	 0	 0	 1	 1.04666	 0	 225	 1	 1.08889	 1.00444;
	 73	 1	 11.3	-7	 0	 0	 1	 1	 0	 63	 1	 1.04762	 0.95238;
	 74	 1	 49	 7	 0	 0	 1	 1.04666	 0	 225	 1	 1.08889	 1.00444;
	 75	 1	 46	 13.2	 0	 0	 1	 1.04666	 0	 225	 1	 1.08889	 1.00444;
...